MODEL 1
REMARK VINA RESULT:    -8.120      0.000      0.000
REMARK INTER + INTRA:         -11.532
REMARK INTER:                 -10.019
REMARK INTRA:                  -1.513
REMARK UNBOUND:                -1.513
REMARK  4 active torsions:
REMARK  status: ('A' for Active; 'I' for Inactive)
REMARK    1  A    between atoms: C9_10  and  C10_11 
REMARK    2  A    between atoms: N2_17  and  C16_18 
REMARK    3  A    between atoms: C16_18  and  C17_19 
REMARK    4  A    between atoms: C17_19  and  N3_20 
ROOT
HETATM    1  C1  UNL     1       5.172  -0.734  30.866  1.00  0.00     0.091 C 
HETATM    2  C2  UNL     1       6.404  -0.501  31.719  1.00  0.00     0.099 C 
HETATM    3  N1  UNL     1       7.438  -0.045  31.082  1.00  0.00    -0.236 NA
HETATM    4  C3  UNL     1       8.627   0.158  31.787  1.00  0.00     0.067 A 
HETATM    5  C4  UNL     1       9.772   0.509  31.066  1.00  0.00     0.032 A 
HETATM    6  C5  UNL     1      10.990   0.716  31.714  1.00  0.00     0.002 A 
HETATM    7  C6  UNL     1      11.072   0.573  33.096  1.00  0.00     0.001 A 
HETATM    8  C7  UNL     1       9.935   0.225  33.825  1.00  0.00     0.012 A 
HETATM    9  C8  UNL     1       8.705   0.017  33.174  1.00  0.00    -0.002 A 
HETATM   10  C9  UNL     1       7.460  -0.341  33.950  1.00  0.00     0.154 C 
HETATM   11  N2  UNL     1       6.359  -0.771  33.076  1.00  0.00    -0.355 N 
ENDROOT
BRANCH  11  12
HETATM   12  C16 UNL     1       5.306  -1.574  33.707  1.00  0.00     0.155 C 
BRANCH  12  13
HETATM   13  C17 UNL     1       5.880  -2.905  34.249  1.00  0.00     0.292 C 
BRANCH  13  14
HETATM   14  N3  UNL     1       5.866  -3.092  35.707  1.00  0.00     0.090 N 
HETATM   15  C18 UNL     1       4.919  -2.236  36.411  1.00  0.00     0.272 C 
HETATM   16  C19 UNL     1       4.683  -2.767  37.829  1.00  0.00     0.030 C 
HETATM   17  C20 UNL     1       5.951  -3.313  38.491  1.00  0.00     0.003 C 
HETATM   18  C21 UNL     1       7.202  -2.778  37.812  1.00  0.00     0.030 C 
HETATM   19  C22 UNL     1       7.203  -3.094  36.310  1.00  0.00     0.272 C 
ENDBRANCH  13  14
ENDBRANCH  12  13
ENDBRANCH  11  12
BRANCH  10  20
HETATM   20  C10 UNL     1       6.990   0.797  34.855  1.00  0.00    -0.031 A 
HETATM   21  C11 UNL     1       6.537   2.005  34.298  1.00  0.00     0.009 A 
HETATM   22  C12 UNL     1       6.106   3.049  35.119  1.00  0.00     0.001 A 
HETATM   23  C13 UNL     1       6.122   2.901  36.505  1.00  0.00     0.000 A 
HETATM   24  C14 UNL     1       6.567   1.708  37.073  1.00  0.00     0.001 A 
HETATM   25  C15 UNL     1       6.998   0.664  36.255  1.00  0.00     0.009 A 
ENDBRANCH  10  20
TORSDOF 4
ENDMDL
MODEL 2
REMARK VINA RESULT:    -8.028     42.036     43.973
REMARK INTER + INTRA:         -11.418
REMARK INTER:                 -10.348
REMARK INTRA:                  -1.070
REMARK UNBOUND:                -1.513
REMARK  4 active torsions:
REMARK  status: ('A' for Active; 'I' for Inactive)
REMARK    1  A    between atoms: C9_10  and  C10_11 
REMARK    2  A    between atoms: N2_17  and  C16_18 
REMARK    3  A    between atoms: C16_18  and  C17_19 
REMARK    4  A    between atoms: C17_19  and  N3_20 
ROOT
HETATM    1  C1  UNL     1      10.379 -38.630   9.087  1.00  0.00     0.091 C 
HETATM    2  C2  UNL     1      11.201 -37.509   8.480  1.00  0.00     0.099 C 
HETATM    3  N1  UNL     1      11.977 -37.861   7.502  1.00  0.00    -0.236 NA
HETATM    4  C3  UNL     1      12.799 -36.897   6.915  1.00  0.00     0.067 A 
HETATM    5  C4  UNL     1      13.735 -37.314   5.964  1.00  0.00     0.032 A 
HETATM    6  C5  UNL     1      14.590 -36.398   5.350  1.00  0.00     0.002 A 
HETATM    7  C6  UNL     1      14.514 -35.049   5.684  1.00  0.00     0.001 A 
HETATM    8  C7  UNL     1      13.582 -34.622   6.630  1.00  0.00     0.012 A 
HETATM    9  C8  UNL     1      12.719 -35.544   7.250  1.00  0.00    -0.002 A 
HETATM   10  C9  UNL     1      11.691 -35.095   8.263  1.00  0.00     0.154 C 
HETATM   11  N2  UNL     1      11.080 -36.223   8.978  1.00  0.00    -0.355 N 
ENDROOT
BRANCH  11  12
HETATM   12  C16 UNL     1      10.454 -35.911  10.267  1.00  0.00     0.155 C 
BRANCH  12  13
HETATM   13  C17 UNL     1      11.521 -35.787  11.381  1.00  0.00     0.292 C 
BRANCH  13  14
HETATM   14  N3  UNL     1      11.290 -36.555  12.613  1.00  0.00     0.090 N 
HETATM   15  C18 UNL     1      12.337 -37.520  12.922  1.00  0.00     0.272 C 
HETATM   16  C19 UNL     1      12.226 -37.969  14.384  1.00  0.00     0.030 C 
HETATM   17  C20 UNL     1      10.780 -38.142  14.857  1.00  0.00     0.003 C 
HETATM   18  C21 UNL     1       9.830 -38.301  13.679  1.00  0.00     0.030 C 
HETATM   19  C22 UNL     1       9.938 -37.118  12.707  1.00  0.00     0.272 C 
ENDBRANCH  13  14
ENDBRANCH  12  13
ENDBRANCH  11  12
BRANCH  10  20
HETATM   20  C10 UNL     1      10.601 -34.224   7.639  1.00  0.00    -0.031 A 
HETATM   21  C11 UNL     1       9.945 -34.638   6.467  1.00  0.00     0.009 A 
HETATM   22  C12 UNL     1       8.948 -33.848   5.893  1.00  0.00     0.001 A 
HETATM   23  C13 UNL     1       8.594 -32.635   6.479  1.00  0.00     0.000 A 
HETATM   24  C14 UNL     1       9.234 -32.210   7.643  1.00  0.00     0.001 A 
HETATM   25  C15 UNL     1      10.230 -32.998   8.219  1.00  0.00     0.009 A 
ENDBRANCH  10  20
TORSDOF 4
ENDMDL
MODEL 3
REMARK VINA RESULT:    -7.464     42.371     44.295
REMARK INTER + INTRA:         -10.723
REMARK INTER:                  -9.237
REMARK INTRA:                  -1.486
REMARK UNBOUND:                -1.513
REMARK  4 active torsions:
REMARK  status: ('A' for Active; 'I' for Inactive)
REMARK    1  A    between atoms: C9_10  and  C10_11 
REMARK    2  A    between atoms: N2_17  and  C16_18 
REMARK    3  A    between atoms: C16_18  and  C17_19 
REMARK    4  A    between atoms: C17_19  and  N3_20 
ROOT
HETATM    1  C1  UNL     1      13.793 -37.225   4.947  1.00  0.00     0.091 C 
HETATM    2  C2  UNL     1      13.638 -35.842   5.550  1.00  0.00     0.099 C 
HETATM    3  N1  UNL     1      13.768 -34.858   4.714  1.00  0.00    -0.236 NA
HETATM    4  C3  UNL     1      13.682 -33.550   5.197  1.00  0.00     0.067 A 
HETATM    5  C4  UNL     1      13.968 -32.500   4.319  1.00  0.00     0.032 A 
HETATM    6  C5  UNL     1      13.907 -31.173   4.745  1.00  0.00     0.002 A 
HETATM    7  C6  UNL     1      13.557 -30.885   6.061  1.00  0.00     0.001 A 
HETATM    8  C7  UNL     1      13.267 -31.924   6.945  1.00  0.00     0.012 A 
HETATM    9  C8  UNL     1      13.327 -33.264   6.516  1.00  0.00    -0.002 A 
HETATM   10  C9  UNL     1      12.998 -34.401   7.455  1.00  0.00     0.154 C 
HETATM   11  N2  UNL     1      13.372 -35.709   6.902  1.00  0.00    -0.355 N 
ENDROOT
BRANCH  11  12
HETATM   12  C16 UNL     1      13.546 -36.797   7.870  1.00  0.00     0.155 C 
BRANCH  12  13
HETATM   13  C17 UNL     1      12.370 -37.799   7.790  1.00  0.00     0.292 C 
BRANCH  13  14
HETATM   14  N3  UNL     1      11.305 -37.659   8.794  1.00  0.00     0.090 N 
HETATM   15  C18 UNL     1      11.755 -37.828  10.170  1.00  0.00     0.272 C 
HETATM   16  C19 UNL     1      10.703 -37.278  11.140  1.00  0.00     0.030 C 
HETATM   17  C20 UNL     1       9.264 -37.567  10.701  1.00  0.00     0.003 C 
HETATM   18  C21 UNL     1       9.212 -38.713   9.702  1.00  0.00     0.030 C 
HETATM   19  C22 UNL     1      10.099 -38.433   8.481  1.00  0.00     0.272 C 
ENDBRANCH  13  14
ENDBRANCH  12  13
ENDBRANCH  11  12
BRANCH  10  20
HETATM   20  C10 UNL     1      11.525 -34.411   7.863  1.00  0.00    -0.031 A 
HETATM   21  C11 UNL     1      11.149 -34.061   9.171  1.00  0.00     0.009 A 
HETATM   22  C12 UNL     1       9.805 -34.068   9.550  1.00  0.00     0.001 A 
HETATM   23  C13 UNL     1       8.821 -34.424   8.630  1.00  0.00     0.000 A 
HETATM   24  C14 UNL     1       9.178 -34.773   7.328  1.00  0.00     0.001 A 
HETATM   25  C15 UNL     1      10.520 -34.767   6.947  1.00  0.00     0.009 A 
ENDBRANCH  10  20
TORSDOF 4
ENDMDL
MODEL 4
REMARK VINA RESULT:    -7.403      1.912      6.489
REMARK INTER + INTRA:         -10.646
REMARK INTER:                  -9.217
REMARK INTRA:                  -1.430
REMARK UNBOUND:                -1.513
REMARK  4 active torsions:
REMARK  status: ('A' for Active; 'I' for Inactive)
REMARK    1  A    between atoms: C9_10  and  C10_11 
REMARK    2  A    between atoms: N2_17  and  C16_18 
REMARK    3  A    between atoms: C16_18  and  C17_19 
REMARK    4  A    between atoms: C17_19  and  N3_20 
ROOT
HETATM    1  C1  UNL     1       6.801   0.478  37.563  1.00  0.00     0.091 C 
HETATM    2  C2  UNL     1       6.308  -0.692  36.732  1.00  0.00     0.099 C 
HETATM    3  N1  UNL     1       5.096  -1.076  36.984  1.00  0.00    -0.236 NA
HETATM    4  C3  UNL     1       4.580  -2.174  36.291  1.00  0.00     0.067 A 
HETATM    5  C4  UNL     1       3.330  -2.670  36.673  1.00  0.00     0.032 A 
HETATM    6  C5  UNL     1       2.767  -3.769  36.024  1.00  0.00     0.002 A 
HETATM    7  C6  UNL     1       3.455  -4.384  34.982  1.00  0.00     0.001 A 
HETATM    8  C7  UNL     1       4.702  -3.896  34.592  1.00  0.00     0.012 A 
HETATM    9  C8  UNL     1       5.271  -2.787  35.244  1.00  0.00    -0.002 A 
HETATM   10  C9  UNL     1       6.612  -2.233  34.822  1.00  0.00     0.154 C 
HETATM   11  N2  UNL     1       7.143  -1.258  35.784  1.00  0.00    -0.355 N 
ENDROOT
BRANCH  11  12
HETATM   12  C16 UNL     1       8.591  -1.026  35.739  1.00  0.00     0.155 C 
BRANCH  12  13
HETATM   13  C17 UNL     1       8.902   0.424  35.294  1.00  0.00     0.292 C 
BRANCH  13  14
HETATM   14  N3  UNL     1       9.212   0.632  33.872  1.00  0.00     0.090 N 
HETATM   15  C18 UNL     1      10.635   0.606  33.560  1.00  0.00     0.272 C 
HETATM   16  C19 UNL     1      10.841   0.426  32.052  1.00  0.00     0.030 C 
HETATM   17  C20 UNL     1       9.825   1.198  31.205  1.00  0.00     0.003 C 
HETATM   18  C21 UNL     1       9.175   2.316  32.007  1.00  0.00     0.030 C 
HETATM   19  C22 UNL     1       8.511   1.778  33.282  1.00  0.00     0.272 C 
ENDBRANCH  13  14
ENDBRANCH  12  13
ENDBRANCH  11  12
BRANCH  10  20
HETATM   20  C10 UNL     1       6.573  -1.616  33.425  1.00  0.00    -0.031 A 
HETATM   21  C11 UNL     1       7.488  -2.028  32.441  1.00  0.00     0.009 A 
HETATM   22  C12 UNL     1       7.457  -1.469  31.162  1.00  0.00     0.001 A 
HETATM   23  C13 UNL     1       6.515  -0.492  30.849  1.00  0.00     0.000 A 
HETATM   24  C14 UNL     1       5.598  -0.074  31.813  1.00  0.00     0.001 A 
HETATM   25  C15 UNL     1       5.627  -0.631  33.091  1.00  0.00     0.009 A 
ENDBRANCH  10  20
TORSDOF 4
ENDMDL
MODEL 5
REMARK VINA RESULT:    -7.101      1.647      5.611
REMARK INTER + INTRA:         -10.274
REMARK INTER:                  -9.239
REMARK INTRA:                  -1.035
REMARK UNBOUND:                -1.513
REMARK  4 active torsions:
REMARK  status: ('A' for Active; 'I' for Inactive)
REMARK    1  A    between atoms: C9_10  and  C10_11 
REMARK    2  A    between atoms: N2_17  and  C16_18 
REMARK    3  A    between atoms: C16_18  and  C17_19 
REMARK    4  A    between atoms: C17_19  and  N3_20 
ROOT
HETATM    1  C1  UNL     1       5.971  -3.404  34.192  1.00  0.00     0.091 C 
HETATM    2  C2  UNL     1       6.270  -2.614  35.452  1.00  0.00     0.099 C 
HETATM    3  N1  UNL     1       6.733  -3.310  36.442  1.00  0.00    -0.236 NA
HETATM    4  C3  UNL     1       6.995  -2.666  37.654  1.00  0.00     0.067 A 
HETATM    5  C4  UNL     1       7.354  -3.448  38.756  1.00  0.00     0.032 A 
HETATM    6  C5  UNL     1       7.619  -2.861  39.994  1.00  0.00     0.002 A 
HETATM    7  C6  UNL     1       7.527  -1.480  40.139  1.00  0.00     0.001 A 
HETATM    8  C7  UNL     1       7.172  -0.691  39.046  1.00  0.00     0.012 A 
HETATM    9  C8  UNL     1       6.905  -1.280  37.796  1.00  0.00    -0.002 A 
HETATM   10  C9  UNL     1       6.537  -0.438  36.596  1.00  0.00     0.154 C 
HETATM   11  N2  UNL     1       6.046  -1.248  35.474  1.00  0.00    -0.355 N 
ENDROOT
BRANCH  11  12
HETATM   12  C16 UNL     1       5.234  -0.545  34.474  1.00  0.00     0.155 C 
BRANCH  12  13
HETATM   13  C17 UNL     1       5.792  -0.780  33.049  1.00  0.00     0.292 C 
BRANCH  13  14
HETATM   14  N3  UNL     1       6.927   0.057  32.632  1.00  0.00     0.090 N 
HETATM   15  C18 UNL     1       6.553   1.394  32.188  1.00  0.00     0.272 C 
HETATM   16  C19 UNL     1       7.786   2.304  32.164  1.00  0.00     0.030 C 
HETATM   17  C20 UNL     1       9.053   1.597  31.673  1.00  0.00     0.003 C 
HETATM   18  C21 UNL     1       8.712   0.340  30.886  1.00  0.00     0.030 C 
HETATM   19  C22 UNL     1       7.847  -0.622  31.712  1.00  0.00     0.272 C 
ENDBRANCH  13  14
ENDBRANCH  12  13
ENDBRANCH  11  12
BRANCH  10  20
HETATM   20  C10 UNL     1       7.693   0.448  36.131  1.00  0.00    -0.031 A 
HETATM   21  C11 UNL     1       7.701   1.820  36.435  1.00  0.00     0.009 A 
HETATM   22  C12 UNL     1       8.753   2.635  36.013  1.00  0.00     0.001 A 
HETATM   23  C13 UNL     1       9.809   2.092  35.285  1.00  0.00     0.000 A 
HETATM   24  C14 UNL     1       9.817   0.733  34.978  1.00  0.00     0.001 A 
HETATM   25  C15 UNL     1       8.767  -0.084  35.398  1.00  0.00     0.009 A 
ENDBRANCH  10  20
TORSDOF 4
ENDMDL
MODEL 6
REMARK VINA RESULT:    -7.044     21.622     24.301
REMARK INTER + INTRA:         -10.204
REMARK INTER:                  -8.982
REMARK INTRA:                  -1.222
REMARK UNBOUND:                -1.513
REMARK  4 active torsions:
REMARK  status: ('A' for Active; 'I' for Inactive)
REMARK    1  A    between atoms: C9_10  and  C10_11 
REMARK    2  A    between atoms: N2_17  and  C16_18 
REMARK    3  A    between atoms: C16_18  and  C17_19 
REMARK    4  A    between atoms: C17_19  and  N3_20 
ROOT
HETATM    1  C1  UNL     1      14.837  -1.183  57.647  1.00  0.00     0.091 C 
HETATM    2  C2  UNL     1      14.500  -0.031  56.720  1.00  0.00     0.099 C 
HETATM    3  N1  UNL     1      13.788  -0.348  55.683  1.00  0.00    -0.236 NA
HETATM    4  C3  UNL     1      13.469   0.647  54.756  1.00  0.00     0.067 A 
HETATM    5  C4  UNL     1      12.828   0.269  53.572  1.00  0.00     0.032 A 
HETATM    6  C5  UNL     1      12.493   1.217  52.606  1.00  0.00     0.002 A 
HETATM    7  C6  UNL     1      12.796   2.559  52.817  1.00  0.00     0.001 A 
HETATM    8  C7  UNL     1      13.433   2.947  53.996  1.00  0.00     0.012 A 
HETATM    9  C8  UNL     1      13.772   1.993  54.973  1.00  0.00    -0.002 A 
HETATM   10  C9  UNL     1      14.444   2.398  56.263  1.00  0.00     0.154 C 
HETATM   11  N2  UNL     1      14.947   1.244  57.020  1.00  0.00    -0.355 N 
ENDROOT
BRANCH  11  12
HETATM   12  C16 UNL     1      16.000   1.521  58.003  1.00  0.00     0.155 C 
BRANCH  12  13
HETATM   13  C17 UNL     1      17.050   2.500  57.423  1.00  0.00     0.292 C 
BRANCH  13  14
HETATM   14  N3  UNL     1      17.204   3.792  58.105  1.00  0.00     0.090 N 
HETATM   15  C18 UNL     1      16.383   3.940  59.300  1.00  0.00     0.272 C 
HETATM   16  C19 UNL     1      16.893   5.110  60.148  1.00  0.00     0.030 C 
HETATM   17  C20 UNL     1      17.356   6.308  59.314  1.00  0.00     0.003 C 
HETATM   18  C21 UNL     1      16.771   6.261  57.910  1.00  0.00     0.030 C 
HETATM   19  C22 UNL     1      17.121   4.945  57.201  1.00  0.00     0.272 C 
ENDBRANCH  13  14
ENDBRANCH  12  13
ENDBRANCH  11  12
BRANCH  10  20
HETATM   20  C10 UNL     1      13.535   3.246  57.152  1.00  0.00    -0.031 A 
HETATM   21  C11 UNL     1      12.791   2.647  58.182  1.00  0.00     0.009 A 
HETATM   22  C12 UNL     1      11.959   3.415  58.998  1.00  0.00     0.001 A 
HETATM   23  C13 UNL     1      11.859   4.790  58.797  1.00  0.00     0.000 A 
HETATM   24  C14 UNL     1      12.592   5.401  57.781  1.00  0.00     0.001 A 
HETATM   25  C15 UNL     1      13.424   4.635  56.964  1.00  0.00     0.009 A 
ENDBRANCH  10  20
TORSDOF 4
ENDMDL
MODEL 7
REMARK VINA RESULT:    -7.026     37.520     39.191
REMARK INTER + INTRA:         -10.182
REMARK INTER:                  -9.144
REMARK INTRA:                  -1.038
REMARK UNBOUND:                -1.513
REMARK  4 active torsions:
REMARK  status: ('A' for Active; 'I' for Inactive)
REMARK    1  A    between atoms: C9_10  and  C10_11 
REMARK    2  A    between atoms: N2_17  and  C16_18 
REMARK    3  A    between atoms: C16_18  and  C17_19 
REMARK    4  A    between atoms: C17_19  and  N3_20 
ROOT
HETATM    1  C1  UNL     1      30.044 -33.235  26.310  1.00  0.00     0.091 C 
HETATM    2  C2  UNL     1      29.899 -32.396  25.055  1.00  0.00     0.099 C 
HETATM    3  N1  UNL     1      30.678 -32.732  24.074  1.00  0.00    -0.236 NA
HETATM    4  C3  UNL     1      30.637 -31.983  22.895  1.00  0.00     0.067 A 
HETATM    5  C4  UNL     1      31.579 -32.261  21.901  1.00  0.00     0.032 A 
HETATM    6  C5  UNL     1      31.594 -31.540  20.706  1.00  0.00     0.002 A 
HETATM    7  C6  UNL     1      30.660 -30.530  20.497  1.00  0.00     0.001 A 
HETATM    8  C7  UNL     1      29.714 -30.246  21.481  1.00  0.00     0.012 A 
HETATM    9  C8  UNL     1      29.697 -30.972  22.686  1.00  0.00    -0.002 A 
HETATM   10  C9  UNL     1      28.667 -30.690  23.755  1.00  0.00     0.154 C 
HETATM   11  N2  UNL     1      28.979 -31.362  25.024  1.00  0.00    -0.355 N 
ENDROOT
BRANCH  11  12
HETATM   12  C16 UNL     1      28.352 -30.802  26.226  1.00  0.00     0.155 C 
BRANCH  12  13
HETATM   13  C17 UNL     1      27.661 -31.912  27.054  1.00  0.00     0.292 C 
BRANCH  13  14
HETATM   14  N3  UNL     1      26.387 -32.433  26.539  1.00  0.00     0.090 N 
HETATM   15  C18 UNL     1      25.273 -32.321  27.472  1.00  0.00     0.272 C 
HETATM   16  C19 UNL     1      23.944 -32.503  26.730  1.00  0.00     0.030 C 
HETATM   17  C20 UNL     1      24.000 -33.575  25.639  1.00  0.00     0.003 C 
HETATM   18  C21 UNL     1      25.170 -34.523  25.857  1.00  0.00     0.030 C 
HETATM   19  C22 UNL     1      26.502 -33.763  25.931  1.00  0.00     0.272 C 
ENDBRANCH  13  14
ENDBRANCH  12  13
ENDBRANCH  11  12
BRANCH  10  20
HETATM   20  C10 UNL     1      27.251 -31.053  23.310  1.00  0.00    -0.031 A 
HETATM   21  C11 UNL     1      26.221 -30.100  23.376  1.00  0.00     0.009 A 
HETATM   22  C12 UNL     1      24.925 -30.425  22.970  1.00  0.00     0.001 A 
HETATM   23  C13 UNL     1      24.641 -31.703  22.494  1.00  0.00     0.000 A 
HETATM   24  C14 UNL     1      25.652 -32.660  22.421  1.00  0.00     0.001 A 
HETATM   25  C15 UNL     1      26.948 -32.338  22.826  1.00  0.00     0.009 A 
ENDBRANCH  10  20
TORSDOF 4
ENDMDL
MODEL 8
REMARK VINA RESULT:    -6.997     21.628     24.293
REMARK INTER + INTRA:         -10.146
REMARK INTER:                  -9.182
REMARK INTRA:                  -0.964
REMARK UNBOUND:                -1.513
REMARK  4 active torsions:
REMARK  status: ('A' for Active; 'I' for Inactive)
REMARK    1  A    between atoms: C9_10  and  C10_11 
REMARK    2  A    between atoms: N2_17  and  C16_18 
REMARK    3  A    between atoms: C16_18  and  C17_19 
REMARK    4  A    between atoms: C17_19  and  N3_20 
ROOT
HETATM    1  C1  UNL     1      15.464  -0.503  58.138  1.00  0.00     0.091 C 
HETATM    2  C2  UNL     1      14.926   0.452  57.090  1.00  0.00     0.099 C 
HETATM    3  N1  UNL     1      14.213  -0.098  56.157  1.00  0.00    -0.236 NA
HETATM    4  C3  UNL     1      13.714   0.705  55.129  1.00  0.00     0.067 A 
HETATM    5  C4  UNL     1      13.073   0.083  54.054  1.00  0.00     0.032 A 
HETATM    6  C5  UNL     1      12.562   0.833  52.994  1.00  0.00     0.002 A 
HETATM    7  C6  UNL     1      12.689   2.219  53.002  1.00  0.00     0.001 A 
HETATM    8  C7  UNL     1      13.324   2.850  54.071  1.00  0.00     0.012 A 
HETATM    9  C8  UNL     1      13.840   2.096  55.141  1.00  0.00    -0.002 A 
HETATM   10  C9  UNL     1      14.514   2.765  56.316  1.00  0.00     0.154 C 
HETATM   11  N2  UNL     1      15.208   1.804  57.185  1.00  0.00    -0.355 N 
ENDROOT
BRANCH  11  12
HETATM   12  C16 UNL     1      16.261   2.352  58.046  1.00  0.00     0.155 C 
BRANCH  12  13
HETATM   13  C17 UNL     1      17.308   3.127  57.210  1.00  0.00     0.292 C 
BRANCH  13  14
HETATM   14  N3  UNL     1      18.700   2.661  57.287  1.00  0.00     0.090 N 
HETATM   15  C18 UNL     1      19.424   2.730  56.024  1.00  0.00     0.272 C 
HETATM   16  C19 UNL     1      20.932   2.618  56.275  1.00  0.00     0.030 C 
HETATM   17  C20 UNL     1      21.291   1.617  57.377  1.00  0.00     0.003 C 
HETATM   18  C21 UNL     1      20.153   0.639  57.625  1.00  0.00     0.030 C 
HETATM   19  C22 UNL     1      18.848   1.371  57.969  1.00  0.00     0.272 C 
ENDBRANCH  13  14
ENDBRANCH  12  13
ENDBRANCH  11  12
BRANCH  10  20
HETATM   20  C10 UNL     1      13.543   3.606  57.143  1.00  0.00    -0.031 A 
HETATM   21  C11 UNL     1      13.386   4.976  56.876  1.00  0.00     0.009 A 
HETATM   22  C12 UNL     1      12.500   5.751  57.627  1.00  0.00     0.001 A 
HETATM   23  C13 UNL     1      11.761   5.168  58.654  1.00  0.00     0.000 A 
HETATM   24  C14 UNL     1      11.904   3.810  58.932  1.00  0.00     0.001 A 
HETATM   25  C15 UNL     1      12.788   3.034  58.182  1.00  0.00     0.009 A 
ENDBRANCH  10  20
TORSDOF 4
ENDMDL
MODEL 9
REMARK VINA RESULT:    -6.967     37.763     39.762
REMARK INTER + INTRA:         -10.109
REMARK INTER:                  -9.144
REMARK INTRA:                  -0.965
REMARK UNBOUND:                -1.513
REMARK  4 active torsions:
REMARK  status: ('A' for Active; 'I' for Inactive)
REMARK    1  A    between atoms: C9_10  and  C10_11 
REMARK    2  A    between atoms: N2_17  and  C16_18 
REMARK    3  A    between atoms: C16_18  and  C17_19 
REMARK    4  A    between atoms: C17_19  and  N3_20 
ROOT
HETATM    1  C1  UNL     1      28.832 -30.001  26.329  1.00  0.00     0.091 C 
HETATM    2  C2  UNL     1      27.910 -31.193  26.155  1.00  0.00     0.099 C 
HETATM    3  N1  UNL     1      27.240 -31.531  27.213  1.00  0.00    -0.236 NA
HETATM    4  C3  UNL     1      26.399 -32.645  27.150  1.00  0.00     0.067 A 
HETATM    5  C4  UNL     1      25.796 -33.087  28.330  1.00  0.00     0.032 A 
HETATM    6  C5  UNL     1      24.954 -34.199  28.331  1.00  0.00     0.002 A 
HETATM    7  C6  UNL     1      24.707 -34.881  27.143  1.00  0.00     0.001 A 
HETATM    8  C7  UNL     1      25.302 -34.447  25.959  1.00  0.00     0.012 A 
HETATM    9  C8  UNL     1      26.152 -33.325  25.956  1.00  0.00    -0.002 A 
HETATM   10  C9  UNL     1      26.790 -32.830  24.679  1.00  0.00     0.154 C 
HETATM   11  N2  UNL     1      27.834 -31.827  24.927  1.00  0.00    -0.355 N 
ENDROOT
BRANCH  11  12
HETATM   12  C16 UNL     1      28.819 -31.638  23.857  1.00  0.00     0.155 C 
BRANCH  12  13
HETATM   13  C17 UNL     1      30.042 -32.563  24.064  1.00  0.00     0.292 C 
BRANCH  13  14
HETATM   14  N3  UNL     1      31.214 -32.319  23.211  1.00  0.00     0.090 N 
HETATM   15  C18 UNL     1      30.968 -31.404  22.104  1.00  0.00     0.272 C 
HETATM   16  C19 UNL     1      32.298 -30.902  21.530  1.00  0.00     0.030 C 
HETATM   17  C20 UNL     1      33.383 -31.981  21.482  1.00  0.00     0.003 C 
HETATM   18  C21 UNL     1      32.779 -33.375  21.553  1.00  0.00     0.030 C 
HETATM   19  C22 UNL     1      31.908 -33.546  22.805  1.00  0.00     0.272 C 
ENDBRANCH  13  14
ENDBRANCH  12  13
ENDBRANCH  11  12
BRANCH  10  20
HETATM   20  C10 UNL     1      25.763 -32.278  23.691  1.00  0.00    -0.031 A 
HETATM   21  C11 UNL     1      24.894 -31.242  24.076  1.00  0.00     0.009 A 
HETATM   22  C12 UNL     1      23.954 -30.733  23.179  1.00  0.00     0.001 A 
HETATM   23  C13 UNL     1      23.869 -31.249  21.888  1.00  0.00     0.000 A 
HETATM   24  C14 UNL     1      24.724 -32.275  21.489  1.00  0.00     0.001 A 
HETATM   25  C15 UNL     1      25.665 -32.786  22.384  1.00  0.00     0.009 A 
ENDBRANCH  10  20
TORSDOF 4
ENDMDL
MODEL 10
REMARK VINA RESULT:    -6.629      1.863      6.725
REMARK INTER + INTRA:          -9.692
REMARK INTER:                  -8.568
REMARK INTRA:                  -1.124
REMARK UNBOUND:                -1.513
REMARK  4 active torsions:
REMARK  status: ('A' for Active; 'I' for Inactive)
REMARK    1  A    between atoms: C9_10  and  C10_11 
REMARK    2  A    between atoms: N2_17  and  C16_18 
REMARK    3  A    between atoms: C16_18  and  C17_19 
REMARK    4  A    between atoms: C17_19  and  N3_20 
ROOT
HETATM    1  C1  UNL     1       7.203  -2.821  33.855  1.00  0.00     0.091 C 
HETATM    2  C2  UNL     1       6.352  -2.650  35.099  1.00  0.00     0.099 C 
HETATM    3  N1  UNL     1       5.259  -3.349  35.120  1.00  0.00    -0.236 NA
HETATM    4  C3  UNL     1       4.397  -3.218  36.211  1.00  0.00     0.067 A 
HETATM    5  C4  UNL     1       3.157  -3.861  36.157  1.00  0.00     0.032 A 
HETATM    6  C5  UNL     1       2.251  -3.760  37.213  1.00  0.00     0.002 A 
HETATM    7  C6  UNL     1       2.581  -3.009  38.338  1.00  0.00     0.001 A 
HETATM    8  C7  UNL     1       3.816  -2.366  38.403  1.00  0.00     0.012 A 
HETATM    9  C8  UNL     1       4.732  -2.468  37.340  1.00  0.00    -0.002 A 
HETATM   10  C9  UNL     1       6.082  -1.792  37.403  1.00  0.00     0.154 C 
HETATM   11  N2  UNL     1       6.772  -1.798  36.105  1.00  0.00    -0.355 N 
ENDROOT
BRANCH  11  12
HETATM   12  C16 UNL     1       7.824  -0.791  35.926  1.00  0.00     0.155 C 
BRANCH  12  13
HETATM   13  C17 UNL     1       7.232   0.535  35.393  1.00  0.00     0.292 C 
BRANCH  13  14
HETATM   14  N3  UNL     1       7.908   1.151  34.242  1.00  0.00     0.090 N 
HETATM   15  C18 UNL     1       7.088   1.230  33.039  1.00  0.00     0.272 C 
HETATM   16  C19 UNL     1       7.706   2.221  32.045  1.00  0.00     0.030 C 
HETATM   17  C20 UNL     1       9.235   2.160  31.999  1.00  0.00     0.003 C 
HETATM   18  C21 UNL     1       9.751   0.844  32.561  1.00  0.00     0.030 C 
HETATM   19  C22 UNL     1       9.249   0.611  33.993  1.00  0.00     0.272 C 
ENDBRANCH  13  14
ENDBRANCH  12  13
ENDBRANCH  11  12
BRANCH  10  20
HETATM   20  C10 UNL     1       6.987  -2.398  38.475  1.00  0.00    -0.031 A 
HETATM   21  C11 UNL     1       7.362  -1.641  39.597  1.00  0.00     0.009 A 
HETATM   22  C12 UNL     1       8.188  -2.189  40.581  1.00  0.00     0.001 A 
HETATM   23  C13 UNL     1       8.650  -3.498  40.456  1.00  0.00     0.000 A 
HETATM   24  C14 UNL     1       8.285  -4.263  39.349  1.00  0.00     0.001 A 
HETATM   25  C15 UNL     1       7.460  -3.718  38.365  1.00  0.00     0.009 A 
ENDBRANCH  10  20
TORSDOF 4
ENDMDL
