MODEL 1
REMARK VINA RESULT:    -7.552      0.000      0.000
REMARK INTER + INTRA:          -9.178
REMARK INTER:                  -8.877
REMARK INTRA:                  -0.301
REMARK UNBOUND:                -0.301
REMARK  3 active torsions:
REMARK  status: ('A' for Active; 'I' for Inactive)
REMARK    1  A    between atoms: C7_8  and  S1_9 
REMARK    2  A    between atoms: S1_9  and  N1_12 
REMARK    3  A    between atoms: N1_12  and  C8_13 
ROOT
HETATM    1  C1  UNL     1      10.366   0.636  33.343  1.00  0.00     0.050 C 
HETATM    2  C2  UNL     1       9.168   1.289  33.975  1.00  0.00    -0.039 A 
HETATM    3  C3  UNL     1       9.247   1.642  35.335  1.00  0.00     0.009 A 
HETATM    4  C4  UNL     1       8.165   2.235  35.989  1.00  0.00     0.019 A 
HETATM    5  C5  UNL     1       6.984   2.474  35.296  1.00  0.00     0.012 A 
HETATM    6 BR1  UNL     1       5.520   3.275  36.184  1.00  0.00    -0.051 Br
HETATM    7  C6  UNL     1       6.871   2.125  33.953  1.00  0.00     0.044 A 
HETATM    8  C7  UNL     1       7.960   1.535  33.292  1.00  0.00     0.087 A 
ENDROOT
BRANCH   8   9
HETATM    9  S1  UNL     1       7.728   1.092  31.578  1.00  0.00     0.265 S 
HETATM   10  O1  UNL     1       6.457   1.627  31.141  1.00  0.00    -0.200 OA
HETATM   11  O2  UNL     1       8.935   1.397  30.841  1.00  0.00    -0.200 OA
BRANCH   9  12
HETATM   12  N1  UNL     1       7.530  -0.575  31.665  1.00  0.00    -0.257 N 
HETATM   13  H7  UNL     1       8.400  -1.058  31.881  1.00  0.00     0.181 HD
BRANCH  12  14
HETATM   14  C8  UNL     1       6.321  -1.024  32.331  1.00  0.00     0.202 A 
HETATM   15  O3  UNL     1       5.062  -0.954  31.811  1.00  0.00    -0.193 OA
HETATM   16  N2  UNL     1       4.156  -1.507  32.702  1.00  0.00    -0.130 NA
HETATM   17  C9  UNL     1       4.879  -1.908  33.757  1.00  0.00     0.080 A 
HETATM   18  C10 UNL     1       4.214  -2.549  34.914  1.00  0.00     0.074 C 
HETATM   19  C11 UNL     1       6.247  -1.631  33.557  1.00  0.00     0.091 A 
HETATM   20 BR2  UNL     1       7.637  -2.023  34.743  1.00  0.00    -0.044 Br
ENDBRANCH  12  14
ENDBRANCH   9  12
ENDBRANCH   8   9
TORSDOF 3
ENDMDL
MODEL 2
REMARK VINA RESULT:    -7.488      3.720      4.077
REMARK INTER + INTRA:          -9.103
REMARK INTER:                  -8.971
REMARK INTRA:                  -0.132
REMARK UNBOUND:                -0.301
REMARK  3 active torsions:
REMARK  status: ('A' for Active; 'I' for Inactive)
REMARK    1  A    between atoms: C7_8  and  S1_9 
REMARK    2  A    between atoms: S1_9  and  N1_12 
REMARK    3  A    between atoms: N1_12  and  C8_13 
ROOT
HETATM    1  C1  UNL     1       8.834   1.762  37.328  1.00  0.00     0.050 C 
HETATM    2  C2  UNL     1       8.358   1.878  35.907  1.00  0.00    -0.039 A 
HETATM    3  C3  UNL     1       9.325   2.016  34.894  1.00  0.00     0.009 A 
HETATM    4  C4  UNL     1       8.952   2.147  33.555  1.00  0.00     0.019 A 
HETATM    5  C5  UNL     1       7.605   2.152  33.209  1.00  0.00     0.012 A 
HETATM    6 BR1  UNL     1       7.103   2.332  31.396  1.00  0.00    -0.051 Br
HETATM    7  C6  UNL     1       6.625   2.030  34.190  1.00  0.00     0.044 A 
HETATM    8  C7  UNL     1       6.998   1.891  35.535  1.00  0.00     0.087 A 
ENDROOT
BRANCH   8   9
HETATM    9  S1  UNL     1       5.682   1.766  36.736  1.00  0.00     0.265 S 
HETATM   10  O1  UNL     1       6.054   0.763  37.710  1.00  0.00    -0.200 OA
HETATM   11  O2  UNL     1       5.307   3.095  37.169  1.00  0.00    -0.200 OA
BRANCH   9  12
HETATM   12  N1  UNL     1       4.434   1.099  35.829  1.00  0.00    -0.257 N 
HETATM   13  H7  UNL     1       4.401   1.471  34.881  1.00  0.00     0.181 HD
BRANCH  12  14
HETATM   14  C8  UNL     1       4.232  -0.328  36.005  1.00  0.00     0.202 A 
HETATM   15  O3  UNL     1       3.631  -0.912  37.080  1.00  0.00    -0.193 OA
HETATM   16  N2  UNL     1       3.573  -2.284  36.897  1.00  0.00    -0.130 NA
HETATM   17  C9  UNL     1       4.143  -2.518  35.707  1.00  0.00     0.080 A 
HETATM   18  C10 UNL     1       4.254  -3.902  35.194  1.00  0.00     0.074 C 
HETATM   19  C11 UNL     1       4.561  -1.311  35.109  1.00  0.00     0.091 A 
HETATM   20 BR2  UNL     1       5.390  -1.133  33.443  1.00  0.00    -0.044 Br
ENDBRANCH  12  14
ENDBRANCH   9  12
ENDBRANCH   8   9
TORSDOF 3
ENDMDL
MODEL 3
REMARK VINA RESULT:    -7.262      2.182      2.692
REMARK INTER + INTRA:          -8.836
REMARK INTER:                  -8.848
REMARK INTRA:                   0.012
REMARK UNBOUND:                -0.301
REMARK  3 active torsions:
REMARK  status: ('A' for Active; 'I' for Inactive)
REMARK    1  A    between atoms: C7_8  and  S1_9 
REMARK    2  A    between atoms: S1_9  and  N1_12 
REMARK    3  A    between atoms: N1_12  and  C8_13 
ROOT
HETATM    1  C1  UNL     1       6.801   2.293  32.058  1.00  0.00     0.050 C 
HETATM    2  C2  UNL     1       7.264   2.138  33.480  1.00  0.00    -0.039 A 
HETATM    3  C3  UNL     1       6.474   2.702  34.499  1.00  0.00     0.009 A 
HETATM    4  C4  UNL     1       6.855   2.611  35.839  1.00  0.00     0.019 A 
HETATM    5  C5  UNL     1       8.036   1.963  36.181  1.00  0.00     0.012 A 
HETATM    6 BR1  UNL     1       8.550   1.843  37.996  1.00  0.00    -0.051 Br
HETATM    7  C6  UNL     1       8.845   1.405  35.194  1.00  0.00     0.044 A 
HETATM    8  C7  UNL     1       8.461   1.490  33.847  1.00  0.00     0.087 A 
ENDROOT
BRANCH   8   9
HETATM    9  S1  UNL     1       9.565   0.774  32.640  1.00  0.00     0.265 S 
HETATM   10  O1  UNL     1       9.820   1.766  31.618  1.00  0.00    -0.200 OA
HETATM   11  O2  UNL     1      10.669   0.137  33.325  1.00  0.00    -0.200 OA
BRANCH   9  12
HETATM   12  N1  UNL     1       8.597  -0.398  31.924  1.00  0.00    -0.257 N 
HETATM   13  H7  UNL     1       9.073  -0.883  31.165  1.00  0.00     0.181 HD
BRANCH  12  14
HETATM   14  C8  UNL     1       7.800  -1.192  32.841  1.00  0.00     0.202 A 
HETATM   15  O3  UNL     1       8.265  -1.792  33.974  1.00  0.00    -0.193 OA
HETATM   16  N2  UNL     1       7.225  -2.433  34.626  1.00  0.00    -0.130 NA
HETATM   17  C9  UNL     1       6.134  -2.213  33.878  1.00  0.00     0.080 A 
HETATM   18  C10 UNL     1       4.826  -2.770  34.290  1.00  0.00     0.074 C 
HETATM   19  C11 UNL     1       6.453  -1.428  32.752  1.00  0.00     0.091 A 
HETATM   20 BR2  UNL     1       5.259  -0.852  31.434  1.00  0.00    -0.044 Br
ENDBRANCH  12  14
ENDBRANCH   9  12
ENDBRANCH   8   9
TORSDOF 3
ENDMDL
MODEL 4
REMARK VINA RESULT:    -7.054     43.362     44.716
REMARK INTER + INTRA:          -8.592
REMARK INTER:                  -8.539
REMARK INTRA:                  -0.052
REMARK UNBOUND:                -0.301
REMARK  3 active torsions:
REMARK  status: ('A' for Active; 'I' for Inactive)
REMARK    1  A    between atoms: C7_8  and  S1_9 
REMARK    2  A    between atoms: S1_9  and  N1_12 
REMARK    3  A    between atoms: N1_12  and  C8_13 
ROOT
HETATM    1  C1  UNL     1       7.836 -35.455   9.207  1.00  0.00     0.050 C 
HETATM    2  C2  UNL     1       8.685 -36.054  10.293  1.00  0.00    -0.039 A 
HETATM    3  C3  UNL     1       8.543 -35.550  11.599  1.00  0.00     0.009 A 
HETATM    4  C4  UNL     1       9.315 -36.048  12.651  1.00  0.00     0.019 A 
HETATM    5  C5  UNL     1      10.246 -37.052  12.412  1.00  0.00     0.012 A 
HETATM    6 BR1  UNL     1      11.289 -37.723  13.838  1.00  0.00    -0.051 Br
HETATM    7  C6  UNL     1      10.418 -37.563  11.129  1.00  0.00     0.044 A 
HETATM    8  C7  UNL     1       9.639 -37.068  10.071  1.00  0.00     0.087 A 
ENDROOT
BRANCH   8   9
HETATM    9  S1  UNL     1       9.937 -37.755   8.451  1.00  0.00     0.265 S 
HETATM   10  O1  UNL     1       9.297 -39.051   8.385  1.00  0.00    -0.200 OA
HETATM   11  O2  UNL     1       9.649 -36.752   7.448  1.00  0.00    -0.200 OA
BRANCH   9  12
HETATM   12  N1  UNL     1      11.592 -38.051   8.488  1.00  0.00    -0.257 N 
HETATM   13  H7  UNL     1      11.807 -39.046   8.538  1.00  0.00     0.181 HD
BRANCH  12  14
HETATM   14  C8  UNL     1      12.390 -37.229   7.597  1.00  0.00     0.202 A 
HETATM   15  O3  UNL     1      12.910 -37.636   6.404  1.00  0.00    -0.193 OA
HETATM   16  N2  UNL     1      13.583 -36.584   5.803  1.00  0.00    -0.130 NA
HETATM   17  C9  UNL     1      13.463 -35.546   6.643  1.00  0.00     0.080 A 
HETATM   18  C10 UNL     1      14.078 -34.242   6.307  1.00  0.00     0.074 C 
HETATM   19  C11 UNL     1      12.710 -35.910   7.778  1.00  0.00     0.091 A 
HETATM   20 BR2  UNL     1      12.266 -34.794   9.211  1.00  0.00    -0.044 Br
ENDBRANCH  12  14
ENDBRANCH   9  12
ENDBRANCH   8   9
TORSDOF 3
ENDMDL
MODEL 5
REMARK VINA RESULT:    -7.014     43.819     45.018
REMARK INTER + INTRA:          -8.545
REMARK INTER:                  -8.381
REMARK INTRA:                  -0.164
REMARK UNBOUND:                -0.301
REMARK  3 active torsions:
REMARK  status: ('A' for Active; 'I' for Inactive)
REMARK    1  A    between atoms: C7_8  and  S1_9 
REMARK    2  A    between atoms: S1_9  and  N1_12 
REMARK    3  A    between atoms: N1_12  and  C8_13 
ROOT
HETATM    1  C1  UNL     1      14.066 -37.081   5.648  1.00  0.00     0.050 C 
HETATM    2  C2  UNL     1      13.337 -36.915   6.952  1.00  0.00    -0.039 A 
HETATM    3  C3  UNL     1      12.863 -38.071   7.597  1.00  0.00     0.009 A 
HETATM    4  C4  UNL     1      12.161 -37.988   8.802  1.00  0.00     0.019 A 
HETATM    5  C5  UNL     1      11.916 -36.745   9.375  1.00  0.00     0.012 A 
HETATM    6 BR1  UNL     1      10.965 -36.635  11.005  1.00  0.00    -0.051 Br
HETATM    7  C6  UNL     1      12.363 -35.582   8.755  1.00  0.00     0.044 A 
HETATM    8  C7  UNL     1      13.073 -35.664   7.547  1.00  0.00     0.087 A 
ENDROOT
BRANCH   8   9
HETATM    9  S1  UNL     1      13.589 -34.127   6.800  1.00  0.00     0.265 S 
HETATM   10  O1  UNL     1      13.081 -33.040   7.608  1.00  0.00    -0.200 OA
HETATM   11  O2  UNL     1      15.001 -34.201   6.488  1.00  0.00    -0.200 OA
BRANCH   9  12
HETATM   12  N1  UNL     1      12.700 -34.107   5.374  1.00  0.00    -0.257 N 
HETATM   13  H7  UNL     1      11.699 -34.029   5.542  1.00  0.00     0.181 HD
BRANCH  12  14
HETATM   14  C8  UNL     1      13.270 -33.320   4.297  1.00  0.00     0.202 A 
HETATM   15  O3  UNL     1      14.124 -33.790   3.343  1.00  0.00    -0.193 OA
HETATM   16  N2  UNL     1      14.436 -32.776   2.452  1.00  0.00    -0.130 NA
HETATM   17  C9  UNL     1      13.765 -31.697   2.877  1.00  0.00     0.080 A 
HETATM   18  C10 UNL     1      13.877 -30.415   2.146  1.00  0.00     0.074 C 
HETATM   19  C11 UNL     1      13.012 -32.001   4.030  1.00  0.00     0.091 A 
HETATM   20 BR2  UNL     1      11.906 -30.822   4.968  1.00  0.00    -0.044 Br
ENDBRANCH  12  14
ENDBRANCH   9  12
ENDBRANCH   8   9
TORSDOF 3
ENDMDL
MODEL 6
REMARK VINA RESULT:    -6.921      3.739      4.473
REMARK INTER + INTRA:          -8.436
REMARK INTER:                  -8.275
REMARK INTRA:                  -0.161
REMARK UNBOUND:                -0.301
REMARK  3 active torsions:
REMARK  status: ('A' for Active; 'I' for Inactive)
REMARK    1  A    between atoms: C7_8  and  S1_9 
REMARK    2  A    between atoms: S1_9  and  N1_12 
REMARK    3  A    between atoms: N1_12  and  C8_13 
ROOT
HETATM    1  C1  UNL     1       5.580   2.583  35.374  1.00  0.00     0.050 C 
HETATM    2  C2  UNL     1       6.817   2.128  34.649  1.00  0.00    -0.039 A 
HETATM    3  C3  UNL     1       6.855   2.270  33.250  1.00  0.00     0.009 A 
HETATM    4  C4  UNL     1       7.965   1.852  32.514  1.00  0.00     0.019 A 
HETATM    5  C5  UNL     1       9.050   1.276  33.164  1.00  0.00     0.012 A 
HETATM    6 BR1  UNL     1      10.550   0.709  32.164  1.00  0.00    -0.051 Br
HETATM    7  C6  UNL     1       9.037   1.112  34.546  1.00  0.00     0.044 A 
HETATM    8  C7  UNL     1       7.925   1.537  35.289  1.00  0.00     0.087 A 
ENDROOT
BRANCH   8   9
HETATM    9  S1  UNL     1       7.974   1.267  37.053  1.00  0.00     0.265 S 
HETATM   10  O1  UNL     1       9.343   1.420  37.496  1.00  0.00    -0.200 OA
HETATM   11  O2  UNL     1       6.918   2.033  37.680  1.00  0.00    -0.200 OA
BRANCH   9  12
HETATM   12  N1  UNL     1       7.623  -0.372  37.172  1.00  0.00    -0.257 N 
HETATM   13  H7  UNL     1       8.099  -0.815  37.957  1.00  0.00     0.181 HD
BRANCH  12  14
HETATM   14  C8  UNL     1       6.238  -0.731  36.931  1.00  0.00     0.202 A 
HETATM   15  O3  UNL     1       5.199  -0.481  37.779  1.00  0.00    -0.193 OA
HETATM   16  N2  UNL     1       4.015  -0.924  37.212  1.00  0.00    -0.130 NA
HETATM   17  C9  UNL     1       4.349  -1.440  36.021  1.00  0.00     0.080 A 
HETATM   18  C10 UNL     1       3.308  -2.016  35.141  1.00  0.00     0.074 C 
HETATM   19  C11 UNL     1       5.738  -1.328  35.803  1.00  0.00     0.091 A 
HETATM   20 BR2  UNL     1       6.665  -1.891  34.280  1.00  0.00    -0.044 Br
ENDBRANCH  12  14
ENDBRANCH   9  12
ENDBRANCH   8   9
TORSDOF 3
ENDMDL
MODEL 7
REMARK VINA RESULT:    -6.847     43.608     44.760
REMARK INTER + INTRA:          -8.349
REMARK INTER:                  -8.223
REMARK INTRA:                  -0.125
REMARK UNBOUND:                -0.301
REMARK  3 active torsions:
REMARK  status: ('A' for Active; 'I' for Inactive)
REMARK    1  A    between atoms: C7_8  and  S1_9 
REMARK    2  A    between atoms: S1_9  and  N1_12 
REMARK    3  A    between atoms: N1_12  and  C8_13 
ROOT
HETATM    1  C1  UNL     1      13.358 -38.615   7.989  1.00  0.00     0.050 C 
HETATM    2  C2  UNL     1      12.662 -37.460   8.655  1.00  0.00    -0.039 A 
HETATM    3  C3  UNL     1      12.063 -37.682   9.908  1.00  0.00     0.009 A 
HETATM    4  C4  UNL     1      11.384 -36.659  10.574  1.00  0.00     0.019 A 
HETATM    5  C5  UNL     1      11.287 -35.400   9.991  1.00  0.00     0.012 A 
HETATM    6 BR1  UNL     1      10.366 -34.017  10.893  1.00  0.00    -0.051 Br
HETATM    7  C6  UNL     1      11.860 -35.153   8.747  1.00  0.00     0.044 A 
HETATM    8  C7  UNL     1      12.547 -36.178   8.080  1.00  0.00     0.087 A 
ENDROOT
BRANCH   8   9
HETATM    9  S1  UNL     1      13.230 -35.790   6.477  1.00  0.00     0.265 S 
HETATM   10  O1  UNL     1      14.646 -36.089   6.505  1.00  0.00    -0.200 OA
HETATM   11  O2  UNL     1      12.388 -36.365   5.449  1.00  0.00    -0.200 OA
BRANCH   9  12
HETATM   12  N1  UNL     1      13.105 -34.115   6.431  1.00  0.00    -0.257 N 
HETATM   13  H7  UNL     1      13.342 -33.684   7.323  1.00  0.00     0.181 HD
BRANCH  12  14
HETATM   14  C8  UNL     1      13.604 -33.486   5.222  1.00  0.00     0.202 A 
HETATM   15  O3  UNL     1      13.961 -34.144   4.082  1.00  0.00    -0.193 OA
HETATM   16  N2  UNL     1      14.353 -33.230   3.117  1.00  0.00    -0.130 NA
HETATM   17  C9  UNL     1      14.230 -32.023   3.685  1.00  0.00     0.080 A 
HETATM   18  C10 UNL     1      14.576 -30.802   2.922  1.00  0.00     0.074 C 
HETATM   19  C11 UNL     1      13.751 -32.142   5.006  1.00  0.00     0.091 A 
HETATM   20 BR2  UNL     1      13.405 -30.733   6.185  1.00  0.00    -0.044 Br
ENDBRANCH  12  14
ENDBRANCH   9  12
ENDBRANCH   8   9
TORSDOF 3
ENDMDL
MODEL 8
REMARK VINA RESULT:    -6.694     37.579     38.559
REMARK INTER + INTRA:          -8.169
REMARK INTER:                  -7.922
REMARK INTRA:                  -0.246
REMARK UNBOUND:                -0.301
REMARK  3 active torsions:
REMARK  status: ('A' for Active; 'I' for Inactive)
REMARK    1  A    between atoms: C7_8  and  S1_9 
REMARK    2  A    between atoms: S1_9  and  N1_12 
REMARK    3  A    between atoms: N1_12  and  C8_13 
ROOT
HETATM    1  C1  UNL     1      28.228 -30.631  24.623  1.00  0.00     0.050 C 
HETATM    2  C2  UNL     1      26.840 -30.998  24.176  1.00  0.00    -0.039 A 
HETATM    3  C3  UNL     1      26.260 -30.250  23.136  1.00  0.00     0.009 A 
HETATM    4  C4  UNL     1      24.967 -30.525  22.685  1.00  0.00     0.019 A 
HETATM    5  C5  UNL     1      24.231 -31.547  23.274  1.00  0.00     0.012 A 
HETATM    6 BR1  UNL     1      22.481 -31.916  22.663  1.00  0.00    -0.051 Br
HETATM    7  C6  UNL     1      24.773 -32.297  24.314  1.00  0.00     0.044 A 
HETATM    8  C7  UNL     1      26.075 -32.026  24.764  1.00  0.00     0.087 A 
ENDROOT
BRANCH   8   9
HETATM    9  S1  UNL     1      26.689 -33.014  26.119  1.00  0.00     0.265 S 
HETATM   10  O1  UNL     1      27.460 -34.107  25.568  1.00  0.00    -0.200 OA
HETATM   11  O2  UNL     1      27.275 -32.142  27.115  1.00  0.00    -0.200 OA
BRANCH   9  12
HETATM   12  N1  UNL     1      25.280 -33.696  26.730  1.00  0.00    -0.257 N 
HETATM   13  H7  UNL     1      25.189 -34.681  26.489  1.00  0.00     0.181 HD
BRANCH  12  14
HETATM   14  C8  UNL     1      24.929 -33.294  28.081  1.00  0.00     0.202 A 
HETATM   15  O3  UNL     1      24.116 -32.249  28.406  1.00  0.00    -0.193 OA
HETATM   16  N2  UNL     1      23.970 -32.180  29.782  1.00  0.00    -0.130 NA
HETATM   17  C9  UNL     1      24.700 -33.189  30.278  1.00  0.00     0.080 A 
HETATM   18  C10 UNL     1      24.771 -33.406  31.741  1.00  0.00     0.074 C 
HETATM   19  C11 UNL     1      25.311 -33.919  29.238  1.00  0.00     0.091 A 
HETATM   20 BR2  UNL     1      26.407 -35.420  29.441  1.00  0.00    -0.044 Br
ENDBRANCH  12  14
ENDBRANCH   9  12
ENDBRANCH   8   9
TORSDOF 3
ENDMDL
MODEL 9
REMARK VINA RESULT:    -6.671     42.375     44.139
REMARK INTER + INTRA:          -8.142
REMARK INTER:                  -8.144
REMARK INTRA:                   0.002
REMARK UNBOUND:                -0.301
REMARK  3 active torsions:
REMARK  status: ('A' for Active; 'I' for Inactive)
REMARK    1  A    between atoms: C7_8  and  S1_9 
REMARK    2  A    between atoms: S1_9  and  N1_12 
REMARK    3  A    between atoms: N1_12  and  C8_13 
ROOT
HETATM    1  C1  UNL     1       9.157 -35.888   8.322  1.00  0.00     0.050 C 
HETATM    2  C2  UNL     1      10.490 -35.978   7.634  1.00  0.00    -0.039 A 
HETATM    3  C3  UNL     1      10.599 -35.460   6.331  1.00  0.00     0.009 A 
HETATM    4  C4  UNL     1      11.804 -35.527   5.627  1.00  0.00     0.019 A 
HETATM    5  C5  UNL     1      12.915 -36.123   6.213  1.00  0.00     0.012 A 
HETATM    6 BR1  UNL     1      14.543 -36.214   5.257  1.00  0.00    -0.051 Br
HETATM    7  C6  UNL     1      12.835 -36.655   7.496  1.00  0.00     0.044 A 
HETATM    8  C7  UNL     1      11.628 -36.582   8.208  1.00  0.00     0.087 A 
ENDROOT
BRANCH   8   9
HETATM    9  S1  UNL     1      11.598 -37.311   9.837  1.00  0.00     0.265 S 
HETATM   10  O1  UNL     1      10.295 -37.906  10.042  1.00  0.00    -0.200 OA
HETATM   11  O2  UNL     1      12.795 -38.104  10.025  1.00  0.00    -0.200 OA
BRANCH   9  12
HETATM   12  N1  UNL     1      11.659 -35.959  10.834  1.00  0.00    -0.257 N 
HETATM   13  H7  UNL     1      11.250 -35.136  10.396  1.00  0.00     0.181 HD
BRANCH  12  14
HETATM   14  C8  UNL     1      11.357 -36.204  12.232  1.00  0.00     0.202 A 
HETATM   15  O3  UNL     1      12.265 -36.565  13.183  1.00  0.00    -0.193 OA
HETATM   16  N2  UNL     1      11.636 -36.675  14.413  1.00  0.00    -0.130 NA
HETATM   17  C9  UNL     1      10.348 -36.378  14.193  1.00  0.00     0.080 A 
HETATM   18  C10 UNL     1       9.377 -36.403  15.311  1.00  0.00     0.074 C 
HETATM   19  C11 UNL     1      10.134 -36.065  12.835  1.00  0.00     0.091 A 
HETATM   20 BR2  UNL     1       8.507 -35.573  12.059  1.00  0.00    -0.044 Br
ENDBRANCH  12  14
ENDBRANCH   9  12
ENDBRANCH   8   9
TORSDOF 3
ENDMDL
MODEL 10
REMARK VINA RESULT:    -6.544      4.753      5.402
REMARK INTER + INTRA:          -7.993
REMARK INTER:                  -7.732
REMARK INTRA:                  -0.261
REMARK UNBOUND:                -0.301
REMARK  3 active torsions:
REMARK  status: ('A' for Active; 'I' for Inactive)
REMARK    1  A    between atoms: C7_8  and  S1_9 
REMARK    2  A    between atoms: S1_9  and  N1_12 
REMARK    3  A    between atoms: N1_12  and  C8_13 
ROOT
HETATM    1  C1  UNL     1       9.324   2.669  36.743  1.00  0.00     0.050 C 
HETATM    2  C2  UNL     1       8.789   1.742  35.688  1.00  0.00    -0.039 A 
HETATM    3  C3  UNL     1       9.328   1.832  34.392  1.00  0.00     0.009 A 
HETATM    4  C4  UNL     1       8.863   1.014  33.360  1.00  0.00     0.019 A 
HETATM    5  C5  UNL     1       7.846   0.099  33.606  1.00  0.00     0.012 A 
HETATM    6 BR1  UNL     1       7.218  -1.006  32.207  1.00  0.00    -0.051 Br
HETATM    7  C6  UNL     1       7.285  -0.006  34.876  1.00  0.00     0.044 A 
HETATM    8  C7  UNL     1       7.754   0.811  35.916  1.00  0.00     0.087 A 
ENDROOT
BRANCH   8   9
HETATM    9  S1  UNL     1       6.965   0.636  37.508  1.00  0.00     0.265 S 
HETATM   10  O1  UNL     1       7.999   0.484  38.509  1.00  0.00    -0.200 OA
HETATM   11  O2  UNL     1       5.958   1.665  37.654  1.00  0.00    -0.200 OA
BRANCH   9  12
HETATM   12  N1  UNL     1       6.219  -0.864  37.373  1.00  0.00    -0.257 N 
HETATM   13  H7  UNL     1       5.740  -0.980  36.481  1.00  0.00     0.181 HD
BRANCH  12  14
HETATM   14  C8  UNL     1       6.985  -1.987  37.882  1.00  0.00     0.202 A 
HETATM   15  O3  UNL     1       8.042  -2.572  37.250  1.00  0.00    -0.193 OA
HETATM   16  N2  UNL     1       8.557  -3.588  38.040  1.00  0.00    -0.130 NA
HETATM   17  C9  UNL     1       7.802  -3.608  39.147  1.00  0.00     0.080 A 
HETATM   18  C10 UNL     1       8.079  -4.591  40.218  1.00  0.00     0.074 C 
HETATM   19  C11 UNL     1       6.809  -2.608  39.091  1.00  0.00     0.091 A 
HETATM   20 BR2  UNL     1       5.535  -2.242  40.409  1.00  0.00    -0.044 Br
ENDBRANCH  12  14
ENDBRANCH   9  12
ENDBRANCH   8   9
TORSDOF 3
ENDMDL
