MODEL 1
REMARK VINA RESULT:    -8.464      0.000      0.000
REMARK INTER + INTRA:         -12.782
REMARK INTER:                 -11.185
REMARK INTRA:                  -1.597
REMARK UNBOUND:                -1.597
REMARK  6 active torsions:
REMARK  status: ('A' for Active; 'I' for Inactive)
REMARK    1  A    between atoms: C5_6  and  N2_7 
REMARK    2  A    between atoms: C7_10  and  C8_11 
REMARK    3  A    between atoms: C8_11  and  C9_13 
REMARK    4  A    between atoms: C11_15  and  C12_16 
REMARK    5  A    between atoms: C17_22  and  C18_23 
REMARK    6  A    between atoms: C23_30  and  N7_31 
ROOT
HETATM    1  C1  UNL     1      10.172 -36.004  15.161  1.00  0.00     0.091 C 
HETATM    2  C2  UNL     1      10.262 -36.162  13.691  1.00  0.00     0.101 A 
HETATM    3  N1  UNL     1      10.773 -35.303  12.834  1.00  0.00    -0.234 NA
HETATM    4  C3  UNL     1      10.630 -35.883  11.597  1.00  0.00     0.087 A 
HETATM    5  C4  UNL     1      11.000 -35.394  10.334  1.00  0.00     0.065 A 
HETATM    6  C5  UNL     1      10.756 -36.189   9.201  1.00  0.00     0.063 A 
HETATM    7  C24 UNL     1      10.110 -37.433   9.347  1.00  0.00     0.034 A 
HETATM    8  C25 UNL     1       9.732 -37.930  10.601  1.00  0.00     0.034 A 
HETATM    9  C26 UNL     1      10.016 -37.124  11.701  1.00  0.00     0.062 A 
HETATM   10  N8  UNL     1       9.794 -37.280  13.044  1.00  0.00    -0.343 N 
HETATM   11  H20 UNL     1       9.354 -38.076  13.484  1.00  0.00     0.167 HD
ENDROOT
BRANCH   6  12
HETATM   12  N2  UNL     1      11.115 -35.749   7.890  1.00  0.00    -0.217 N 
HETATM   13  N3  UNL     1      10.141 -35.290   7.054  1.00  0.00    -0.177 NA
HETATM   14  C6  UNL     1      10.798 -34.794   6.009  1.00  0.00     0.158 C 
HETATM   15  C7  UNL     1      12.183 -35.038   6.050  1.00  0.00     0.081 C 
HETATM   16  C23 UNL     1      12.371 -35.685   7.264  1.00  0.00     0.139 C 
BRANCH  15  17
HETATM   17  C8  UNL     1      13.230 -34.707   5.091  1.00  0.00     0.213 C 
HETATM   18  O1  UNL     1      13.965 -35.570   4.615  1.00  0.00    -0.285 OA
BRANCH  17  19
HETATM   19  C9  UNL     1      13.387 -33.314   4.708  1.00  0.00     0.085 A 
HETATM   20  C10 UNL     1      13.744 -32.689   3.527  1.00  0.00     0.048 A 
HETATM   21  C11 UNL     1      13.764 -31.280   3.747  1.00  0.00     0.005 A 
HETATM   22  C17 UNL     1      13.432 -31.064   5.080  1.00  0.00     0.055 A 
HETATM   23  N6  UNL     1      13.243 -32.309   5.641  1.00  0.00    -0.352 N 
HETATM   24  H15 UNL     1      12.998 -32.478   6.609  1.00  0.00     0.166 HD
BRANCH  21  25
HETATM   25  C12 UNL     1      14.091 -30.243   2.782  1.00  0.00    -0.006 A 
HETATM   26  C13 UNL     1      15.409 -29.973   2.406  1.00  0.00     0.015 A 
HETATM   27  C14 UNL     1      15.668 -28.971   1.472  1.00  0.00     0.020 A 
HETATM   28  C15 UNL     1      14.596 -28.277   0.935  1.00  0.00     0.116 A 
HETATM   29  N4  UNL     1      13.308 -28.517   1.261  1.00  0.00    -0.272 NA
HETATM   30  C16 UNL     1      13.088 -29.493   2.176  1.00  0.00     0.128 A 
ENDBRANCH  21  25
BRANCH  22  31
HETATM   31  C18 UNL     1      13.255 -29.846   5.871  1.00  0.00     0.009 A 
HETATM   32  C19 UNL     1      14.249 -29.398   6.744  1.00  0.00     0.016 A 
HETATM   33  C20 UNL     1      14.049 -28.239   7.491  1.00  0.00     0.020 A 
HETATM   34  C21 UNL     1      12.851 -27.560   7.344  1.00  0.00     0.116 A 
HETATM   35  N5  UNL     1      11.865 -27.956   6.514  1.00  0.00    -0.272 NA
HETATM   36  C22 UNL     1      12.088 -29.086   5.798  1.00  0.00     0.130 A 
ENDBRANCH  22  31
ENDBRANCH  17  19
ENDBRANCH  15  17
BRANCH  16  37
HETATM   37  N7  UNL     1      13.523 -36.203   7.773  1.00  0.00    -0.383 N 
HETATM   38  H16 UNL     1      14.427 -35.878   7.434  1.00  0.00     0.157 HD
HETATM   39  H17 UNL     1      13.553 -36.427   8.771  1.00  0.00     0.157 HD
ENDBRANCH  16  37
ENDBRANCH   6  12
TORSDOF 6
ENDMDL
MODEL 2
REMARK VINA RESULT:    -7.965      1.184      3.204
REMARK INTER + INTRA:         -12.122
REMARK INTER:                 -11.100
REMARK INTRA:                  -1.022
REMARK UNBOUND:                -1.597
REMARK  6 active torsions:
REMARK  status: ('A' for Active; 'I' for Inactive)
REMARK    1  A    between atoms: C5_6  and  N2_7 
REMARK    2  A    between atoms: C7_10  and  C8_11 
REMARK    3  A    between atoms: C8_11  and  C9_13 
REMARK    4  A    between atoms: C11_15  and  C12_16 
REMARK    5  A    between atoms: C17_22  and  C18_23 
REMARK    6  A    between atoms: C23_30  and  N7_31 
ROOT
HETATM    1  C1  UNL     1      10.252 -36.005  15.295  1.00  0.00     0.091 C 
HETATM    2  C2  UNL     1      10.327 -36.191  13.828  1.00  0.00     0.101 A 
HETATM    3  N1  UNL     1      10.837 -35.354  12.950  1.00  0.00    -0.234 NA
HETATM    4  C3  UNL     1      10.677 -35.956  11.726  1.00  0.00     0.087 A 
HETATM    5  C4  UNL     1      11.040 -35.495  10.450  1.00  0.00     0.065 A 
HETATM    6  C5  UNL     1      10.778 -36.308   9.335  1.00  0.00     0.063 A 
HETATM    7  C24 UNL     1      10.122 -37.543   9.510  1.00  0.00     0.034 A 
HETATM    8  C25 UNL     1       9.751 -38.013  10.777  1.00  0.00     0.034 A 
HETATM    9  C26 UNL     1      10.053 -37.188  11.859  1.00  0.00     0.062 A 
HETATM   10  N8  UNL     1       9.842 -37.317  13.207  1.00  0.00    -0.343 N 
HETATM   11  H20 UNL     1       9.398 -38.100  13.666  1.00  0.00     0.167 HD
ENDROOT
BRANCH   6  12
HETATM   12  N2  UNL     1      11.129 -35.897   8.013  1.00  0.00    -0.217 N 
HETATM   13  N3  UNL     1      10.157 -35.412   7.188  1.00  0.00    -0.177 NA
HETATM   14  C6  UNL     1      10.812 -34.953   6.126  1.00  0.00     0.158 C 
HETATM   15  C7  UNL     1      12.189 -35.247   6.145  1.00  0.00     0.081 C 
HETATM   16  C23 UNL     1      12.375 -35.887   7.363  1.00  0.00     0.139 C 
BRANCH  15  17
HETATM   17  C8  UNL     1      13.229 -34.966   5.164  1.00  0.00     0.213 C 
HETATM   18  O1  UNL     1      13.877 -35.866   4.635  1.00  0.00    -0.285 OA
BRANCH  17  19
HETATM   19  C9  UNL     1      13.486 -33.577   4.824  1.00  0.00     0.085 A 
HETATM   20  C10 UNL     1      13.599 -32.421   5.575  1.00  0.00     0.048 A 
HETATM   21  C11 UNL     1      13.830 -31.325   4.692  1.00  0.00     0.005 A 
HETATM   22  C17 UNL     1      13.838 -31.831   3.397  1.00  0.00     0.055 A 
HETATM   23  N6  UNL     1      13.595 -33.184   3.506  1.00  0.00    -0.352 N 
HETATM   24  H15 UNL     1      13.534 -33.828   2.727  1.00  0.00     0.166 HD
BRANCH  21  25
HETATM   25  C12 UNL     1      14.003 -29.927   5.050  1.00  0.00    -0.006 A 
HETATM   26  C13 UNL     1      14.074 -28.920   4.085  1.00  0.00     0.015 A 
HETATM   27  C14 UNL     1      14.235 -27.594   4.482  1.00  0.00     0.020 A 
HETATM   28  C15 UNL     1      14.311 -27.316   5.837  1.00  0.00     0.116 A 
HETATM   29  N4  UNL     1      14.234 -28.258   6.802  1.00  0.00    -0.272 NA
HETATM   30  C16 UNL     1      14.082 -29.539   6.385  1.00  0.00     0.128 A 
ENDBRANCH  21  25
BRANCH  22  31
HETATM   31  C18 UNL     1      14.062 -31.210   2.092  1.00  0.00     0.009 A 
HETATM   32  C19 UNL     1      15.350 -30.902   1.648  1.00  0.00     0.016 A 
HETATM   33  C20 UNL     1      15.532 -30.302   0.403  1.00  0.00     0.020 A 
HETATM   34  C21 UNL     1      14.413 -30.024  -0.364  1.00  0.00     0.116 A 
HETATM   35  N5  UNL     1      13.153 -30.303   0.026  1.00  0.00    -0.272 NA
HETATM   36  C22 UNL     1      13.005 -30.888   1.240  1.00  0.00     0.130 A 
ENDBRANCH  22  31
ENDBRANCH  17  19
ENDBRANCH  15  17
BRANCH  16  37
HETATM   37  N7  UNL     1      13.516 -36.440   7.858  1.00  0.00    -0.383 N 
HETATM   38  H16 UNL     1      14.223 -36.813   7.226  1.00  0.00     0.157 HD
HETATM   39  H17 UNL     1      13.938 -36.018   8.689  1.00  0.00     0.157 HD
ENDBRANCH  16  37
ENDBRANCH   6  12
TORSDOF 6
ENDMDL
MODEL 3
REMARK VINA RESULT:    -7.902      2.445      4.301
REMARK INTER + INTRA:         -12.039
REMARK INTER:                 -10.604
REMARK INTRA:                  -1.435
REMARK UNBOUND:                -1.597
REMARK  6 active torsions:
REMARK  status: ('A' for Active; 'I' for Inactive)
REMARK    1  A    between atoms: C5_6  and  N2_7 
REMARK    2  A    between atoms: C7_10  and  C8_11 
REMARK    3  A    between atoms: C8_11  and  C9_13 
REMARK    4  A    between atoms: C11_15  and  C12_16 
REMARK    5  A    between atoms: C17_22  and  C18_23 
REMARK    6  A    between atoms: C23_30  and  N7_31 
ROOT
HETATM    1  C1  UNL     1      10.125 -36.959  13.953  1.00  0.00     0.091 C 
HETATM    2  C2  UNL     1      10.653 -36.626  12.610  1.00  0.00     0.101 A 
HETATM    3  N1  UNL     1      11.047 -35.443  12.187  1.00  0.00    -0.234 NA
HETATM    4  C3  UNL     1      11.449 -35.629  10.887  1.00  0.00     0.087 A 
HETATM    5  C4  UNL     1      11.953 -34.695   9.966  1.00  0.00     0.065 A 
HETATM    6  C5  UNL     1      12.309 -35.136   8.681  1.00  0.00     0.063 A 
HETATM    7  C24 UNL     1      12.117 -36.486   8.326  1.00  0.00     0.034 A 
HETATM    8  C25 UNL     1      11.612 -37.427   9.234  1.00  0.00     0.034 A 
HETATM    9  C26 UNL     1      11.296 -36.955  10.507  1.00  0.00     0.062 A 
HETATM   10  N8  UNL     1      10.789 -37.570  11.622  1.00  0.00    -0.343 N 
HETATM   11  H20 UNL     1      10.550 -38.548  11.701  1.00  0.00     0.167 HD
ENDROOT
BRANCH   6  12
HETATM   12  N2  UNL     1      12.832 -34.235   7.703  1.00  0.00    -0.217 N 
HETATM   13  N3  UNL     1      14.098 -34.427   7.233  1.00  0.00    -0.177 NA
HETATM   14  C6  UNL     1      14.220 -33.564   6.229  1.00  0.00     0.158 C 
HETATM   15  C7  UNL     1      13.123 -32.691   6.101  1.00  0.00     0.081 C 
HETATM   16  C23 UNL     1      12.242 -33.120   7.085  1.00  0.00     0.139 C 
BRANCH  15  17
HETATM   17  C8  UNL     1      12.894 -31.590   5.175  1.00  0.00     0.213 C 
HETATM   18  O1  UNL     1      12.493 -31.783   4.029  1.00  0.00    -0.285 OA
BRANCH  17  19
HETATM   19  C9  UNL     1      13.158 -30.240   5.644  1.00  0.00     0.085 A 
HETATM   20  C10 UNL     1      12.384 -29.289   6.283  1.00  0.00     0.048 A 
HETATM   21  C11 UNL     1      13.171 -28.116   6.476  1.00  0.00     0.005 A 
HETATM   22  C17 UNL     1      14.425 -28.364   5.928  1.00  0.00     0.055 A 
HETATM   23  N6  UNL     1      14.376 -29.639   5.405  1.00  0.00    -0.352 N 
HETATM   24  H15 UNL     1      15.142 -30.102   4.931  1.00  0.00     0.166 HD
BRANCH  21  25
HETATM   25  C12 UNL     1      12.757 -26.871   7.101  1.00  0.00    -0.006 A 
HETATM   26  C13 UNL     1      12.175 -25.834   6.369  1.00  0.00     0.015 A 
HETATM   27  C14 UNL     1      11.791 -24.661   7.019  1.00  0.00     0.020 A 
HETATM   28  C15 UNL     1      11.993 -24.569   8.386  1.00  0.00     0.116 A 
HETATM   29  N4  UNL     1      12.539 -25.553   9.132  1.00  0.00    -0.272 NA
HETATM   30  C16 UNL     1      12.908 -26.678   8.472  1.00  0.00     0.128 A 
ENDBRANCH  21  25
BRANCH  22  31
HETATM   31  C18 UNL     1      15.649 -27.567   5.856  1.00  0.00     0.009 A 
HETATM   32  C19 UNL     1      16.443 -27.355   6.986  1.00  0.00     0.016 A 
HETATM   33  C20 UNL     1      17.600 -26.584   6.889  1.00  0.00     0.020 A 
HETATM   34  C21 UNL     1      17.929 -26.043   5.657  1.00  0.00     0.116 A 
HETATM   35  N5  UNL     1      17.192 -26.221   4.542  1.00  0.00    -0.272 NA
HETATM   36  C22 UNL     1      16.073 -26.976   4.666  1.00  0.00     0.130 A 
ENDBRANCH  22  31
ENDBRANCH  17  19
ENDBRANCH  15  17
BRANCH  16  37
HETATM   37  N7  UNL     1      11.045 -32.576   7.438  1.00  0.00    -0.383 N 
HETATM   38  H16 UNL     1      11.002 -31.638   7.832  1.00  0.00     0.157 HD
HETATM   39  H17 UNL     1      10.231 -32.776   6.850  1.00  0.00     0.157 HD
ENDBRANCH  16  37
ENDBRANCH   6  12
TORSDOF 6
ENDMDL
MODEL 4
REMARK VINA RESULT:    -7.875     41.067     44.200
REMARK INTER + INTRA:         -12.003
REMARK INTER:                 -10.733
REMARK INTRA:                  -1.271
REMARK UNBOUND:                -1.597
REMARK  6 active torsions:
REMARK  status: ('A' for Active; 'I' for Inactive)
REMARK    1  A    between atoms: C5_6  and  N2_7 
REMARK    2  A    between atoms: C7_10  and  C8_11 
REMARK    3  A    between atoms: C8_11  and  C9_13 
REMARK    4  A    between atoms: C11_15  and  C12_16 
REMARK    5  A    between atoms: C17_22  and  C18_23 
REMARK    6  A    between atoms: C23_30  and  N7_31 
ROOT
HETATM    1  C1  UNL     1      10.814   0.836  30.523  1.00  0.00     0.091 C 
HETATM    2  C2  UNL     1       9.671   0.736  31.460  1.00  0.00     0.101 A 
HETATM    3  N1  UNL     1       9.111  -0.367  31.908  1.00  0.00    -0.234 NA
HETATM    4  C3  UNL     1       8.098   0.042  32.740  1.00  0.00     0.087 A 
HETATM    5  C4  UNL     1       7.181  -0.726  33.476  1.00  0.00     0.065 A 
HETATM    6  C5  UNL     1       6.231  -0.068  34.274  1.00  0.00     0.063 A 
HETATM    7  C24 UNL     1       6.187   1.341  34.289  1.00  0.00     0.034 A 
HETATM    8  C25 UNL     1       7.094   2.119  33.557  1.00  0.00     0.034 A 
HETATM    9  C26 UNL     1       8.037   1.428  32.800  1.00  0.00     0.062 A 
HETATM   10  N8  UNL     1       9.050   1.847  31.977  1.00  0.00    -0.343 N 
HETATM   11  H20 UNL     1       9.294   2.807  31.779  1.00  0.00     0.167 HD
ENDROOT
BRANCH   6  12
HETATM   12  N2  UNL     1       5.276  -0.795  35.049  1.00  0.00    -0.217 N 
HETATM   13  N3  UNL     1       4.204  -1.359  34.423  1.00  0.00    -0.177 NA
HETATM   14  C6  UNL     1       3.620  -2.102  35.358  1.00  0.00     0.158 C 
HETATM   15  C7  UNL     1       4.182  -1.940  36.638  1.00  0.00     0.081 C 
HETATM   16  C23 UNL     1       5.239  -1.064  36.428  1.00  0.00     0.139 C 
BRANCH  15  17
HETATM   17  C8  UNL     1       3.805  -2.527  37.918  1.00  0.00     0.213 C 
HETATM   18  O1  UNL     1       2.761  -2.219  38.487  1.00  0.00    -0.285 OA
BRANCH  17  19
HETATM   19  C9  UNL     1       4.709  -3.497  38.513  1.00  0.00     0.085 A 
HETATM   20  C10 UNL     1       4.709  -4.879  38.581  1.00  0.00     0.048 A 
HETATM   21  C11 UNL     1       5.847  -5.298  39.330  1.00  0.00     0.005 A 
HETATM   22  C17 UNL     1       6.525  -4.152  39.729  1.00  0.00     0.055 A 
HETATM   23  N6  UNL     1       5.798  -3.082  39.251  1.00  0.00    -0.352 N 
HETATM   24  H15 UNL     1       6.038  -2.108  39.389  1.00  0.00     0.166 HD
BRANCH  21  25
HETATM   25  C12 UNL     1       6.236  -6.661  39.651  1.00  0.00    -0.006 A 
HETATM   26  C13 UNL     1       7.342  -7.274  39.058  1.00  0.00     0.015 A 
HETATM   27  C14 UNL     1       7.676  -8.582  39.405  1.00  0.00     0.020 A 
HETATM   28  C15 UNL     1       6.895  -9.232  40.347  1.00  0.00     0.116 A 
HETATM   29  N4  UNL     1       5.828  -8.672  40.954  1.00  0.00    -0.272 NA
HETATM   30  C16 UNL     1       5.525  -7.401  40.591  1.00  0.00     0.128 A 
ENDBRANCH  21  25
BRANCH  22  31
HETATM   31  C18 UNL     1       7.765  -3.944  40.478  1.00  0.00     0.009 A 
HETATM   32  C19 UNL     1       7.911  -4.420  41.783  1.00  0.00     0.016 A 
HETATM   33  C20 UNL     1       9.101  -4.201  42.474  1.00  0.00     0.020 A 
HETATM   34  C21 UNL     1      10.115  -3.505  41.836  1.00  0.00     0.116 A 
HETATM   35  N5  UNL     1      10.016  -3.028  40.579  1.00  0.00    -0.272 NA
HETATM   36  C22 UNL     1       8.848  -3.258  39.930  1.00  0.00     0.130 A 
ENDBRANCH  22  31
ENDBRANCH  17  19
ENDBRANCH  15  17
BRANCH  16  37
HETATM   37  N7  UNL     1       6.079  -0.522  37.351  1.00  0.00    -0.383 N 
HETATM   38  H16 UNL     1       6.379  -1.068  38.158  1.00  0.00     0.157 HD
HETATM   39  H17 UNL     1       6.820   0.104  37.023  1.00  0.00     0.157 HD
ENDBRANCH  16  37
ENDBRANCH   6  12
TORSDOF 6
ENDMDL
MODEL 5
REMARK VINA RESULT:    -7.870     43.392     47.762
REMARK INTER + INTRA:         -11.997
REMARK INTER:                 -10.442
REMARK INTRA:                  -1.555
REMARK UNBOUND:                -1.597
REMARK  6 active torsions:
REMARK  status: ('A' for Active; 'I' for Inactive)
REMARK    1  A    between atoms: C5_6  and  N2_7 
REMARK    2  A    between atoms: C7_10  and  C8_11 
REMARK    3  A    between atoms: C8_11  and  C9_13 
REMARK    4  A    between atoms: C11_15  and  C12_16 
REMARK    5  A    between atoms: C17_22  and  C18_23 
REMARK    6  A    between atoms: C23_30  and  N7_31 
ROOT
HETATM    1  C1  UNL     1      10.448   1.129  31.264  1.00  0.00     0.091 C 
HETATM    2  C2  UNL     1       9.667   0.979  32.514  1.00  0.00     0.101 A 
HETATM    3  N1  UNL     1       9.776   0.014  33.402  1.00  0.00    -0.234 NA
HETATM    4  C3  UNL     1       8.852   0.300  34.377  1.00  0.00     0.087 A 
HETATM    5  C4  UNL     1       8.545  -0.407  35.552  1.00  0.00     0.065 A 
HETATM    6  C5  UNL     1       7.553   0.100  36.407  1.00  0.00     0.063 A 
HETATM    7  C24 UNL     1       6.858   1.274  36.054  1.00  0.00     0.034 A 
HETATM    8  C25 UNL     1       7.152   1.986  34.883  1.00  0.00     0.034 A 
HETATM    9  C26 UNL     1       8.161   1.465  34.076  1.00  0.00     0.062 A 
HETATM   10  N8  UNL     1       8.699   1.880  32.886  1.00  0.00    -0.343 N 
HETATM   11  H20 UNL     1       8.427   2.702  32.366  1.00  0.00     0.167 HD
ENDROOT
BRANCH   6  12
HETATM   12  N2  UNL     1       7.201  -0.570  37.619  1.00  0.00    -0.217 N 
HETATM   13  N3  UNL     1       7.834  -0.225  38.777  1.00  0.00    -0.177 NA
HETATM   14  C6  UNL     1       7.172  -0.875  39.730  1.00  0.00     0.158 C 
HETATM   15  C7  UNL     1       6.202  -1.765  39.234  1.00  0.00     0.081 C 
HETATM   16  C23 UNL     1       6.253  -1.579  37.859  1.00  0.00     0.139 C 
BRANCH  15  17
HETATM   17  C8  UNL     1       5.314  -2.683  39.936  1.00  0.00     0.213 C 
HETATM   18  O1  UNL     1       4.920  -3.725  39.416  1.00  0.00    -0.285 OA
BRANCH  17  19
HETATM   19  C9  UNL     1       4.896  -2.329  41.282  1.00  0.00     0.085 A 
HETATM   20  C10 UNL     1       5.553  -2.283  42.498  1.00  0.00     0.048 A 
HETATM   21  C11 UNL     1       4.622  -1.889  43.504  1.00  0.00     0.005 A 
HETATM   22  C17 UNL     1       3.390  -1.716  42.883  1.00  0.00     0.055 A 
HETATM   23  N6  UNL     1       3.579  -2.021  41.551  1.00  0.00    -0.352 N 
HETATM   24  H15 UNL     1       2.858  -1.994  40.841  1.00  0.00     0.166 HD
BRANCH  21  25
HETATM   25  C12 UNL     1       4.880  -1.717  44.924  1.00  0.00    -0.006 A 
HETATM   26  C13 UNL     1       4.630  -2.734  45.849  1.00  0.00     0.015 A 
HETATM   27  C14 UNL     1       4.900  -2.520  47.200  1.00  0.00     0.020 A 
HETATM   28  C15 UNL     1       5.423  -1.295  47.580  1.00  0.00     0.116 A 
HETATM   29  N4  UNL     1       5.692  -0.293  46.718  1.00  0.00    -0.272 NA
HETATM   30  C16 UNL     1       5.414  -0.528  45.412  1.00  0.00     0.128 A 
ENDBRANCH  21  25
BRANCH  22  31
HETATM   31  C18 UNL     1       2.083  -1.286  43.378  1.00  0.00     0.009 A 
HETATM   32  C19 UNL     1       1.297  -2.127  44.171  1.00  0.00     0.016 A 
HETATM   33  C20 UNL     1       0.052  -1.693  44.622  1.00  0.00     0.020 A 
HETATM   34  C21 UNL     1      -0.374  -0.425  44.263  1.00  0.00     0.116 A 
HETATM   35  N5  UNL     1       0.351   0.418  43.500  1.00  0.00    -0.272 NA
HETATM   36  C22 UNL     1       1.559  -0.030  43.077  1.00  0.00     0.130 A 
ENDBRANCH  22  31
ENDBRANCH  17  19
ENDBRANCH  15  17
BRANCH  16  37
HETATM   37  N7  UNL     1       5.561  -2.244  36.893  1.00  0.00    -0.383 N 
HETATM   38  H16 UNL     1       5.988  -2.425  35.986  1.00  0.00     0.157 HD
HETATM   39  H17 UNL     1       4.944  -3.009  37.180  1.00  0.00     0.157 HD
ENDBRANCH  16  37
ENDBRANCH   6  12
TORSDOF 6
ENDMDL
MODEL 6
REMARK VINA RESULT:    -7.796      3.083      5.104
REMARK INTER + INTRA:         -11.899
REMARK INTER:                 -10.347
REMARK INTRA:                  -1.552
REMARK UNBOUND:                -1.597
REMARK  6 active torsions:
REMARK  status: ('A' for Active; 'I' for Inactive)
REMARK    1  A    between atoms: C5_6  and  N2_7 
REMARK    2  A    between atoms: C7_10  and  C8_11 
REMARK    3  A    between atoms: C8_11  and  C9_13 
REMARK    4  A    between atoms: C11_15  and  C12_16 
REMARK    5  A    between atoms: C17_22  and  C18_23 
REMARK    6  A    between atoms: C23_30  and  N7_31 
ROOT
HETATM    1  C1  UNL     1       8.958 -39.263   9.379  1.00  0.00     0.091 C 
HETATM    2  C2  UNL     1      10.029 -38.490   8.710  1.00  0.00     0.101 A 
HETATM    3  N1  UNL     1       9.882 -37.404   7.980  1.00  0.00    -0.234 NA
HETATM    4  C3  UNL     1      11.147 -37.054   7.575  1.00  0.00     0.087 A 
HETATM    5  C4  UNL     1      11.562 -35.979   6.773  1.00  0.00     0.065 A 
HETATM    6  C5  UNL     1      12.932 -35.824   6.504  1.00  0.00     0.063 A 
HETATM    7  C24 UNL     1      13.853 -36.765   7.003  1.00  0.00     0.034 A 
HETATM    8  C25 UNL     1      13.452 -37.845   7.802  1.00  0.00     0.034 A 
HETATM    9  C26 UNL     1      12.088 -37.948   8.067  1.00  0.00     0.062 A 
HETATM   10  N8  UNL     1      11.352 -38.852   8.788  1.00  0.00    -0.343 N 
HETATM   11  H20 UNL     1      11.717 -39.651   9.286  1.00  0.00     0.167 HD
ENDROOT
BRANCH   6  12
HETATM   12  N2  UNL     1      13.416 -34.747   5.699  1.00  0.00    -0.217 N 
HETATM   13  N3  UNL     1      14.057 -35.028   4.529  1.00  0.00    -0.177 NA
HETATM   14  C6  UNL     1      14.214 -33.848   3.937  1.00  0.00     0.158 C 
HETATM   15  C7  UNL     1      13.828 -32.760   4.742  1.00  0.00     0.081 C 
HETATM   16  C23 UNL     1      13.340 -33.358   5.896  1.00  0.00     0.139 C 
BRANCH  15  17
HETATM   17  C8  UNL     1      13.888 -31.326   4.486  1.00  0.00     0.213 C 
HETATM   18  O1  UNL     1      13.842 -30.505   5.399  1.00  0.00    -0.285 OA
BRANCH  17  19
HETATM   19  C9  UNL     1      14.000 -30.886   3.106  1.00  0.00     0.085 A 
HETATM   20  C10 UNL     1      15.009 -30.274   2.384  1.00  0.00     0.048 A 
HETATM   21  C11 UNL     1      14.544 -30.045   1.056  1.00  0.00     0.005 A 
HETATM   22  C17 UNL     1      13.235 -30.509   0.990  1.00  0.00     0.055 A 
HETATM   23  N6  UNL     1      12.924 -30.979   2.249  1.00  0.00    -0.352 N 
HETATM   24  H15 UNL     1      12.032 -31.376   2.516  1.00  0.00     0.166 HD
BRANCH  21  25
HETATM   25  C12 UNL     1      15.272 -29.422  -0.037  1.00  0.00    -0.006 A 
HETATM   26  C13 UNL     1      15.704 -30.150  -1.147  1.00  0.00     0.015 A 
HETATM   27  C14 UNL     1      16.395 -29.503  -2.171  1.00  0.00     0.020 A 
HETATM   28  C15 UNL     1      16.621 -28.141  -2.055  1.00  0.00     0.116 A 
HETATM   29  N4  UNL     1      16.208 -27.399  -1.006  1.00  0.00    -0.272 NA
HETATM   30  C16 UNL     1      15.544 -28.057  -0.024  1.00  0.00     0.128 A 
ENDBRANCH  21  25
BRANCH  22  31
HETATM   31  C18 UNL     1      12.263 -30.581  -0.101  1.00  0.00     0.009 A 
HETATM   32  C19 UNL     1      12.030 -31.777  -0.786  1.00  0.00     0.016 A 
HETATM   33  C20 UNL     1      11.104 -31.813  -1.827  1.00  0.00     0.020 A 
HETATM   34  C21 UNL     1      10.437 -30.644  -2.156  1.00  0.00     0.116 A 
HETATM   35  N5  UNL     1      10.632 -29.470  -1.523  1.00  0.00    -0.272 NA
HETATM   36  C22 UNL     1      11.537 -29.464  -0.514  1.00  0.00     0.130 A 
ENDBRANCH  22  31
ENDBRANCH  17  19
ENDBRANCH  15  17
BRANCH  16  37
HETATM   37  N7  UNL     1      12.893 -32.755   7.033  1.00  0.00    -0.383 N 
HETATM   38  H16 UNL     1      13.546 -32.279   7.653  1.00  0.00     0.157 HD
HETATM   39  H17 UNL     1      11.986 -32.281   7.005  1.00  0.00     0.157 HD
ENDBRANCH  16  37
ENDBRANCH   6  12
TORSDOF 6
ENDMDL
MODEL 7
REMARK VINA RESULT:    -7.794     56.822     61.011
REMARK INTER + INTRA:         -11.897
REMARK INTER:                 -10.810
REMARK INTRA:                  -1.087
REMARK UNBOUND:                -1.597
REMARK  6 active torsions:
REMARK  status: ('A' for Active; 'I' for Inactive)
REMARK    1  A    between atoms: C5_6  and  N2_7 
REMARK    2  A    between atoms: C7_10  and  C8_11 
REMARK    3  A    between atoms: C8_11  and  C9_13 
REMARK    4  A    between atoms: C11_15  and  C12_16 
REMARK    5  A    between atoms: C17_22  and  C18_23 
REMARK    6  A    between atoms: C23_30  and  N7_31 
ROOT
HETATM    1  C1  UNL     1       7.427  -4.799  53.096  1.00  0.00     0.091 C 
HETATM    2  C2  UNL     1       8.615  -3.914  53.122  1.00  0.00     0.101 A 
HETATM    3  N1  UNL     1       8.684  -2.699  53.625  1.00  0.00    -0.234 NA
HETATM    4  C3  UNL     1       9.976  -2.283  53.414  1.00  0.00     0.087 A 
HETATM    5  C4  UNL     1      10.587  -1.064  53.750  1.00  0.00     0.065 A 
HETATM    6  C5  UNL     1      11.943  -0.876  53.434  1.00  0.00     0.063 A 
HETATM    7  C24 UNL     1      12.649  -1.889  52.754  1.00  0.00     0.034 A 
HETATM    8  C25 UNL     1      12.050  -3.108  52.410  1.00  0.00     0.034 A 
HETATM    9  C26 UNL     1      10.711  -3.265  52.765  1.00  0.00     0.062 A 
HETATM   10  N8  UNL     1       9.823  -4.294  52.591  1.00  0.00    -0.343 N 
HETATM   11  H20 UNL     1      10.020  -5.178  52.143  1.00  0.00     0.167 HD
ENDROOT
BRANCH   6  12
HETATM   12  N2  UNL     1      12.621   0.340  53.755  1.00  0.00    -0.217 N 
HETATM   13  N3  UNL     1      12.589   1.373  52.865  1.00  0.00    -0.177 NA
HETATM   14  C6  UNL     1      13.136   2.396  53.515  1.00  0.00     0.158 C 
HETATM   15  C7  UNL     1      13.671   2.044  54.768  1.00  0.00     0.081 C 
HETATM   16  C23 UNL     1      13.356   0.698  54.898  1.00  0.00     0.139 C 
BRANCH  15  17
HETATM   17  C8  UNL     1      14.385   2.849  55.751  1.00  0.00     0.213 C 
HETATM   18  O1  UNL     1      15.610   2.949  55.736  1.00  0.00    -0.285 OA
BRANCH  17  19
HETATM   19  C9  UNL     1      13.603   3.538  56.764  1.00  0.00     0.085 A 
HETATM   20  C10 UNL     1      13.296   4.868  56.984  1.00  0.00     0.048 A 
HETATM   21  C11 UNL     1      12.505   4.963  58.167  1.00  0.00     0.005 A 
HETATM   22  C17 UNL     1      12.354   3.675  58.668  1.00  0.00     0.055 A 
HETATM   23  N6  UNL     1      13.054   2.842  57.821  1.00  0.00    -0.352 N 
HETATM   24  H15 UNL     1      13.136   1.839  57.930  1.00  0.00     0.166 HD
BRANCH  21  25
HETATM   25  C12 UNL     1      11.966   6.170  58.771  1.00  0.00    -0.006 A 
HETATM   26  C13 UNL     1      10.674   6.622  58.493  1.00  0.00     0.015 A 
HETATM   27  C14 UNL     1      10.203   7.784  59.103  1.00  0.00     0.020 A 
HETATM   28  C15 UNL     1      11.040   8.451  59.983  1.00  0.00     0.116 A 
HETATM   29  N4  UNL     1      12.288   8.040  60.290  1.00  0.00    -0.272 NA
HETATM   30  C16 UNL     1      12.721   6.911  59.677  1.00  0.00     0.128 A 
ENDBRANCH  21  25
BRANCH  22  31
HETATM   31  C18 UNL     1      11.626   3.139  59.818  1.00  0.00     0.009 A 
HETATM   32  C19 UNL     1      10.871   3.971  60.649  1.00  0.00     0.016 A 
HETATM   33  C20 UNL     1      10.194   3.433  61.742  1.00  0.00     0.020 A 
HETATM   34  C21 UNL     1      10.296   2.072  61.975  1.00  0.00     0.116 A 
HETATM   35  N5  UNL     1      11.014   1.233  61.200  1.00  0.00    -0.272 NA
HETATM   36  C22 UNL     1      11.660   1.783  60.143  1.00  0.00     0.130 A 
ENDBRANCH  22  31
ENDBRANCH  17  19
ENDBRANCH  15  17
BRANCH  16  37
HETATM   37  N7  UNL     1      13.699  -0.154  55.903  1.00  0.00    -0.383 N 
HETATM   38  H16 UNL     1      14.408  -0.869  55.752  1.00  0.00     0.157 HD
HETATM   39  H17 UNL     1      13.730   0.213  56.858  1.00  0.00     0.157 HD
ENDBRANCH  16  37
ENDBRANCH   6  12
TORSDOF 6
ENDMDL
MODEL 8
REMARK VINA RESULT:    -7.705      1.895      2.733
REMARK INTER + INTRA:         -11.779
REMARK INTER:                 -10.367
REMARK INTRA:                  -1.412
REMARK UNBOUND:                -1.597
REMARK  6 active torsions:
REMARK  status: ('A' for Active; 'I' for Inactive)
REMARK    1  A    between atoms: C5_6  and  N2_7 
REMARK    2  A    between atoms: C7_10  and  C8_11 
REMARK    3  A    between atoms: C8_11  and  C9_13 
REMARK    4  A    between atoms: C11_15  and  C12_16 
REMARK    5  A    between atoms: C17_22  and  C18_23 
REMARK    6  A    between atoms: C23_30  and  N7_31 
ROOT
HETATM    1  C1  UNL     1       9.422 -36.427  12.817  1.00  0.00     0.091 C 
HETATM    2  C2  UNL     1      10.165 -36.317  11.541  1.00  0.00     0.101 A 
HETATM    3  N1  UNL     1      10.791 -35.254  11.080  1.00  0.00    -0.234 NA
HETATM    4  C3  UNL     1      11.323 -35.631   9.872  1.00  0.00     0.087 A 
HETATM    5  C4  UNL     1      12.082 -34.881   8.957  1.00  0.00     0.065 A 
HETATM    6  C5  UNL     1      12.527 -35.501   7.778  1.00  0.00     0.063 A 
HETATM    7  C24 UNL     1      12.172 -36.839   7.515  1.00  0.00     0.034 A 
HETATM    8  C25 UNL     1      11.413 -37.597   8.417  1.00  0.00     0.034 A 
HETATM    9  C26 UNL     1      11.014 -36.953   9.586  1.00  0.00     0.062 A 
HETATM   10  N8  UNL     1      10.277 -37.369  10.665  1.00  0.00    -0.343 N 
HETATM   11  H20 UNL     1       9.878 -38.288  10.791  1.00  0.00     0.167 HD
ENDROOT
BRANCH   6  12
HETATM   12  N2  UNL     1      13.307 -34.793   6.813  1.00  0.00    -0.217 N 
HETATM   13  N3  UNL     1      14.660 -34.964   6.798  1.00  0.00    -0.177 NA
HETATM   14  C6  UNL     1      15.068 -34.335   5.699  1.00  0.00     0.158 C 
HETATM   15  C7  UNL     1      14.045 -33.619   5.049  1.00  0.00     0.081 C 
HETATM   16  C23 UNL     1      12.913 -33.901   5.802  1.00  0.00     0.139 C 
BRANCH  15  17
HETATM   17  C8  UNL     1      14.090 -32.775   3.862  1.00  0.00     0.213 C 
HETATM   18  O1  UNL     1      14.025 -33.249   2.730  1.00  0.00    -0.285 OA
BRANCH  17  19
HETATM   19  C9  UNL     1      14.217 -31.340   4.052  1.00  0.00     0.085 A 
HETATM   20  C10 UNL     1      14.754 -30.324   3.282  1.00  0.00     0.048 A 
HETATM   21  C11 UNL     1      14.627 -29.096   3.995  1.00  0.00     0.005 A 
HETATM   22  C17 UNL     1      14.023 -29.386   5.214  1.00  0.00     0.055 A 
HETATM   23  N6  UNL     1      13.818 -30.749   5.233  1.00  0.00    -0.352 N 
HETATM   24  H15 UNL     1      13.399 -31.262   5.998  1.00  0.00     0.166 HD
BRANCH  21  25
HETATM   25  C12 UNL     1      15.062 -27.778   3.564  1.00  0.00    -0.006 A 
HETATM   26  C13 UNL     1      16.403 -27.390   3.613  1.00  0.00     0.015 A 
HETATM   27  C14 UNL     1      16.768 -26.115   3.182  1.00  0.00     0.020 A 
HETATM   28  C15 UNL     1      15.778 -25.273   2.703  1.00  0.00     0.116 A 
HETATM   29  N4  UNL     1      14.474 -25.614   2.626  1.00  0.00    -0.272 NA
HETATM   30  C16 UNL     1      14.149 -26.857   3.058  1.00  0.00     0.128 A 
ENDBRANCH  21  25
BRANCH  22  31
HETATM   31  C18 UNL     1      13.604 -28.546   6.335  1.00  0.00     0.009 A 
HETATM   32  C19 UNL     1      12.473 -27.730   6.247  1.00  0.00     0.016 A 
HETATM   33  C20 UNL     1      12.102 -26.934   7.329  1.00  0.00     0.020 A 
HETATM   34  C21 UNL     1      12.881 -26.976   8.474  1.00  0.00     0.116 A 
HETATM   35  N5  UNL     1      13.979 -27.747   8.602  1.00  0.00    -0.272 NA
HETATM   36  C22 UNL     1      14.315 -28.512   7.534  1.00  0.00     0.130 A 
ENDBRANCH  22  31
ENDBRANCH  17  19
ENDBRANCH  15  17
BRANCH  16  37
HETATM   37  N7  UNL     1      11.654 -33.407   5.645  1.00  0.00    -0.383 N 
HETATM   38  H16 UNL     1      11.171 -32.970   6.428  1.00  0.00     0.157 HD
HETATM   39  H17 UNL     1      11.418 -32.956   4.757  1.00  0.00     0.157 HD
ENDBRANCH  16  37
ENDBRANCH   6  12
TORSDOF 6
ENDMDL
MODEL 9
REMARK VINA RESULT:    -7.618      2.981      4.317
REMARK INTER + INTRA:         -11.665
REMARK INTER:                 -10.465
REMARK INTRA:                  -1.199
REMARK UNBOUND:                -1.597
REMARK  6 active torsions:
REMARK  status: ('A' for Active; 'I' for Inactive)
REMARK    1  A    between atoms: C5_6  and  N2_7 
REMARK    2  A    between atoms: C7_10  and  C8_11 
REMARK    3  A    between atoms: C8_11  and  C9_13 
REMARK    4  A    between atoms: C11_15  and  C12_16 
REMARK    5  A    between atoms: C17_22  and  C18_23 
REMARK    6  A    between atoms: C23_30  and  N7_31 
ROOT
HETATM    1  C1  UNL     1       9.102 -39.434   9.458  1.00  0.00     0.091 C 
HETATM    2  C2  UNL     1      10.018 -38.512   8.749  1.00  0.00     0.101 A 
HETATM    3  N1  UNL     1       9.682 -37.469   8.020  1.00  0.00    -0.234 NA
HETATM    4  C3  UNL     1      10.864 -36.933   7.570  1.00  0.00     0.087 A 
HETATM    5  C4  UNL     1      11.082 -35.814   6.749  1.00  0.00     0.065 A 
HETATM    6  C5  UNL     1      12.402 -35.454   6.432  1.00  0.00     0.063 A 
HETATM    7  C24 UNL     1      13.473 -36.239   6.902  1.00  0.00     0.034 A 
HETATM    8  C25 UNL     1      13.269 -37.360   7.719  1.00  0.00     0.034 A 
HETATM    9  C26 UNL     1      11.947 -37.668   8.032  1.00  0.00     0.062 A 
HETATM   10  N8  UNL     1      11.383 -38.667   8.782  1.00  0.00    -0.343 N 
HETATM   11  H20 UNL     1      11.883 -39.396   9.270  1.00  0.00     0.167 HD
ENDROOT
BRANCH   6  12
HETATM   12  N2  UNL     1      12.687 -34.323   5.606  1.00  0.00    -0.217 N 
HETATM   13  N3  UNL     1      13.608 -34.446   4.608  1.00  0.00    -0.177 NA
HETATM   14  C6  UNL     1      13.515 -33.311   3.921  1.00  0.00     0.158 C 
HETATM   15  C7  UNL     1      12.660 -32.364   4.514  1.00  0.00     0.081 C 
HETATM   16  C23 UNL     1      12.152 -33.024   5.625  1.00  0.00     0.139 C 
BRANCH  15  17
HETATM   17  C8  UNL     1      12.330 -31.003   4.109  1.00  0.00     0.213 C 
HETATM   18  O1  UNL     1      11.429 -30.770   3.305  1.00  0.00    -0.285 OA
BRANCH  17  19
HETATM   19  C9  UNL     1      13.103 -29.916   4.683  1.00  0.00     0.085 A 
HETATM   20  C10 UNL     1      14.413 -29.497   4.528  1.00  0.00     0.048 A 
HETATM   21  C11 UNL     1      14.635 -28.373   5.378  1.00  0.00     0.005 A 
HETATM   22  C17 UNL     1      13.448 -28.130   6.061  1.00  0.00     0.055 A 
HETATM   23  N6  UNL     1      12.555 -29.095   5.646  1.00  0.00    -0.352 N 
HETATM   24  H15 UNL     1      11.601 -29.184   5.976  1.00  0.00     0.166 HD
BRANCH  21  25
HETATM   25  C12 UNL     1      15.867 -27.621   5.537  1.00  0.00    -0.006 A 
HETATM   26  C13 UNL     1      16.478 -26.965   4.466  1.00  0.00     0.015 A 
HETATM   27  C14 UNL     1      17.657 -26.252   4.674  1.00  0.00     0.020 A 
HETATM   28  C15 UNL     1      18.184 -26.209   5.954  1.00  0.00     0.116 A 
HETATM   29  N4  UNL     1      17.619 -26.817   7.019  1.00  0.00    -0.272 NA
HETATM   30  C16 UNL     1      16.476 -27.507   6.785  1.00  0.00     0.128 A 
ENDBRANCH  21  25
BRANCH  22  31
HETATM   31  C18 UNL     1      13.054 -27.104   7.026  1.00  0.00     0.009 A 
HETATM   32  C19 UNL     1      13.162 -27.325   8.402  1.00  0.00     0.016 A 
HETATM   33  C20 UNL     1      12.772 -26.332   9.298  1.00  0.00     0.020 A 
HETATM   34  C21 UNL     1      12.278 -25.142   8.789  1.00  0.00     0.116 A 
HETATM   35  N5  UNL     1      12.156 -24.888   7.470  1.00  0.00    -0.272 NA
HETATM   36  C22 UNL     1      12.546 -25.871   6.621  1.00  0.00     0.130 A 
ENDBRANCH  22  31
ENDBRANCH  17  19
ENDBRANCH  15  17
BRANCH  16  37
HETATM   37  N7  UNL     1      11.322 -32.537   6.587  1.00  0.00    -0.383 N 
HETATM   38  H16 UNL     1      11.032 -31.560   6.571  1.00  0.00     0.157 HD
HETATM   39  H17 UNL     1      10.576 -33.146   6.936  1.00  0.00     0.157 HD
ENDBRANCH  16  37
ENDBRANCH   6  12
TORSDOF 6
ENDMDL
MODEL 10
REMARK VINA RESULT:    -7.613      2.059      3.889
REMARK INTER + INTRA:         -11.657
REMARK INTER:                 -10.240
REMARK INTRA:                  -1.417
REMARK UNBOUND:                -1.597
REMARK  6 active torsions:
REMARK  status: ('A' for Active; 'I' for Inactive)
REMARK    1  A    between atoms: C5_6  and  N2_7 
REMARK    2  A    between atoms: C7_10  and  C8_11 
REMARK    3  A    between atoms: C8_11  and  C9_13 
REMARK    4  A    between atoms: C11_15  and  C12_16 
REMARK    5  A    between atoms: C17_22  and  C18_23 
REMARK    6  A    between atoms: C23_30  and  N7_31 
ROOT
HETATM    1  C1  UNL     1       9.853 -37.696  12.619  1.00  0.00     0.091 C 
HETATM    2  C2  UNL     1      10.494 -37.377  11.323  1.00  0.00     0.101 A 
HETATM    3  N1  UNL     1      10.239 -36.344  10.548  1.00  0.00    -0.234 NA
HETATM    4  C3  UNL     1      11.073 -36.476   9.465  1.00  0.00     0.087 A 
HETATM    5  C4  UNL     1      11.207 -35.652   8.336  1.00  0.00     0.065 A 
HETATM    6  C5  UNL     1      12.151 -35.996   7.354  1.00  0.00     0.063 A 
HETATM    7  C24 UNL     1      12.909 -37.175   7.497  1.00  0.00     0.034 A 
HETATM    8  C25 UNL     1      12.782 -38.008   8.617  1.00  0.00     0.034 A 
HETATM    9  C26 UNL     1      11.855 -37.617   9.580  1.00  0.00     0.062 A 
HETATM   10  N8  UNL     1      11.469 -38.173  10.772  1.00  0.00    -0.343 N 
HETATM   11  H20 UNL     1      11.833 -39.025  11.174  1.00  0.00     0.167 HD
ENDROOT
BRANCH   6  12
HETATM   12  N2  UNL     1      12.338 -35.194   6.186  1.00  0.00    -0.217 N 
HETATM   13  N3  UNL     1      11.348 -35.146   5.249  1.00  0.00    -0.177 NA
HETATM   14  C6  UNL     1      11.733 -34.198   4.400  1.00  0.00     0.158 C 
HETATM   15  C7  UNL     1      13.025 -33.704   4.657  1.00  0.00     0.081 C 
HETATM   16  C23 UNL     1      13.418 -34.383   5.803  1.00  0.00     0.139 C 
BRANCH  15  17
HETATM   17  C8  UNL     1      13.818 -32.712   3.942  1.00  0.00     0.213 C 
HETATM   18  O1  UNL     1      14.431 -32.993   2.914  1.00  0.00    -0.285 OA
BRANCH  17  19
HETATM   19  C9  UNL     1      13.868 -31.364   4.482  1.00  0.00     0.085 A 
HETATM   20  C10 UNL     1      13.306 -30.765   5.595  1.00  0.00     0.048 A 
HETATM   21  C11 UNL     1      13.678 -29.389   5.609  1.00  0.00     0.005 A 
HETATM   22  C17 UNL     1      14.457 -29.159   4.480  1.00  0.00     0.055 A 
HETATM   23  N6  UNL     1      14.527 -30.359   3.804  1.00  0.00    -0.352 N 
HETATM   24  H15 UNL     1      15.022 -30.507   2.933  1.00  0.00     0.166 HD
BRANCH  21  25
HETATM   25  C12 UNL     1      13.306 -28.386   6.592  1.00  0.00    -0.006 A 
HETATM   26  C13 UNL     1      14.016 -28.220   7.783  1.00  0.00     0.015 A 
HETATM   27  C14 UNL     1      13.620 -27.239   8.692  1.00  0.00     0.020 A 
HETATM   28  C15 UNL     1      12.529 -26.447   8.372  1.00  0.00     0.116 A 
HETATM   29  N4  UNL     1      11.825 -26.566   7.227  1.00  0.00    -0.272 NA
HETATM   30  C16 UNL     1      12.230 -27.531   6.366  1.00  0.00     0.128 A 
ENDBRANCH  21  25
BRANCH  22  31
HETATM   31  C18 UNL     1      15.150 -27.972   3.980  1.00  0.00     0.009 A 
HETATM   32  C19 UNL     1      16.076 -27.286   4.770  1.00  0.00     0.016 A 
HETATM   33  C20 UNL     1      16.714 -26.154   4.269  1.00  0.00     0.020 A 
HETATM   34  C21 UNL     1      16.403 -25.735   2.986  1.00  0.00     0.116 A 
HETATM   35  N5  UNL     1      15.516 -26.366   2.190  1.00  0.00    -0.272 NA
HETATM   36  C22 UNL     1      14.912 -27.466   2.702  1.00  0.00     0.130 A 
ENDBRANCH  22  31
ENDBRANCH  17  19
ENDBRANCH  15  17
BRANCH  16  37
HETATM   37  N7  UNL     1      14.618 -34.327   6.444  1.00  0.00    -0.383 N 
HETATM   38  H16 UNL     1      14.719 -33.786   7.301  1.00  0.00     0.157 HD
HETATM   39  H17 UNL     1      15.197 -35.171   6.461  1.00  0.00     0.157 HD
ENDBRANCH  16  37
ENDBRANCH   6  12
TORSDOF 6
ENDMDL
