MODEL 1
REMARK VINA RESULT:    -8.901      0.000      0.000
REMARK INTER + INTRA:         -10.937
REMARK INTER:                 -10.463
REMARK INTRA:                  -0.475
REMARK UNBOUND:                -0.475
REMARK  3 active torsions:
REMARK  status: ('A' for Active; 'I' for Inactive)
REMARK    1  A    between atoms: O1_2  and  C2_3 
REMARK    2  A    between atoms: C8_10  and  C9_11 
REMARK       I    between atoms: C9_11  and  N2_13 
REMARK    3  A    between atoms: N3_22  and  C18_23 
ROOT
HETATM    1  C1  UNL     1       9.491   1.827  35.368  1.00  0.00     0.211 C 
HETATM    2  O1  UNL     1       8.170   2.258  35.053  1.00  0.00    -0.339 OA
ENDROOT
BRANCH   2   3
HETATM    3  C2  UNL     1       7.715   1.784  33.834  1.00  0.00     0.175 A 
HETATM    4  N1  UNL     1       8.186   2.356  32.701  1.00  0.00    -0.236 NA
HETATM    5  C3  UNL     1       7.707   1.881  31.535  1.00  0.00     0.120 A 
HETATM    6  C4  UNL     1       6.774   0.861  31.440  1.00  0.00     0.031 A 
HETATM    7  C5  UNL     1       6.295   0.274  32.615  1.00  0.00    -0.020 A 
HETATM    8  C6  UNL     1       5.363  -0.778  32.572  1.00  0.00     0.013 A 
HETATM    9  C25 UNL     1       6.770   0.741  33.861  1.00  0.00     0.028 A 
HETATM   10  C7  UNL     1       4.893  -1.364  33.749  1.00  0.00     0.018 A 
HETATM   11  C8  UNL     1       5.342  -0.891  34.983  1.00  0.00     0.033 A 
HETATM   12  C24 UNL     1       6.285   0.139  35.045  1.00  0.00     0.033 A 
BRANCH  11  13
HETATM   13  C9  UNL     1       4.885  -1.524  36.240  1.00  0.00     0.253 C 
HETATM   14  O2  UNL     1       3.691  -1.452  36.518  1.00  0.00    -0.267 OA
HETATM   15  N2  UNL     1       5.824  -2.151  37.059  1.00  0.00    -0.348 N 
HETATM   16  C10 UNL     1       7.162  -2.554  36.619  1.00  0.00     0.128 C 
HETATM   17  C14 UNL     1       5.379  -2.618  38.368  1.00  0.00     0.128 C 
HETATM   18  C11 UNL     1       7.580  -3.873  37.259  1.00  0.00     0.051 C 
HETATM   19  C12 UNL     1       7.603  -3.794  38.806  1.00  0.00     0.040 C 
HETATM   20  C13 UNL     1       6.550  -2.779  39.328  1.00  0.00     0.051 C 
HETATM   21  C15 UNL     1       7.301  -5.229  39.369  1.00  0.00     0.073 C 
HETATM   22  N5  UNL     1       8.952  -3.336  39.239  1.00  0.00    -0.346 N 
HETATM   23  C16 UNL     1       7.735  -5.336  40.786  1.00  0.00    -0.003 A 
HETATM   24  C17 UNL     1       7.338  -6.147  41.821  1.00  0.00     0.123 A 
HETATM   25  C22 UNL     1       8.745  -4.503  41.325  1.00  0.00     0.152 A 
HETATM   26  N3  UNL     1       8.119  -5.798  42.896  1.00  0.00    -0.271 N 
HETATM   27  N4  UNL     1       8.961  -4.777  42.618  1.00  0.00    -0.166 NA
HETATM   28  C23 UNL     1       9.433  -3.476  40.536  1.00  0.00     0.273 C 
HETATM   29  O3  UNL     1      10.364  -2.776  40.924  1.00  0.00    -0.266 OA
HETATM   30  H28 UNL     1       9.377  -2.541  38.776  1.00  0.00     0.163 HD
BRANCH  26  31
HETATM   31  C18 UNL     1       8.058  -6.347  44.265  1.00  0.00     0.044 C 
HETATM   32  C19 UNL     1       9.443  -6.856  44.728  1.00  0.00     0.039 C 
HETATM   33  C20 UNL     1       7.082  -7.540  44.347  1.00  0.00     0.039 C 
HETATM   34  C21 UNL     1       7.590  -5.238  45.223  1.00  0.00     0.039 C 
ENDBRANCH  26  31
ENDBRANCH  11  13
ENDBRANCH   2   3
TORSDOF 3
ENDMDL
MODEL 2
REMARK VINA RESULT:    -8.485      1.645      2.494
REMARK INTER + INTRA:         -10.448
REMARK INTER:                  -9.827
REMARK INTRA:                  -0.621
REMARK UNBOUND:                -0.475
REMARK  3 active torsions:
REMARK  status: ('A' for Active; 'I' for Inactive)
REMARK    1  A    between atoms: O1_2  and  C2_3 
REMARK    2  A    between atoms: C8_10  and  C9_11 
REMARK       I    between atoms: C9_11  and  N2_13 
REMARK    3  A    between atoms: N3_22  and  C18_23 
ROOT
HETATM    1  C1  UNL     1       5.562  -0.687  30.956  1.00  0.00     0.211 C 
HETATM    2  O1  UNL     1       6.709  -1.027  31.731  1.00  0.00    -0.339 OA
ENDROOT
BRANCH   2   3
HETATM    3  C2  UNL     1       7.580   0.034  31.916  1.00  0.00     0.175 A 
HETATM    4  N1  UNL     1       8.280   0.489  30.851  1.00  0.00    -0.236 NA
HETATM    5  C3  UNL     1       9.131   1.509  31.073  1.00  0.00     0.120 A 
HETATM    6  C4  UNL     1       9.324   2.101  32.312  1.00  0.00     0.031 A 
HETATM    7  C5  UNL     1       8.594   1.626  33.405  1.00  0.00    -0.020 A 
HETATM    8  C6  UNL     1       8.738   2.205  34.679  1.00  0.00     0.013 A 
HETATM    9  C25 UNL     1       7.690   0.556  33.219  1.00  0.00     0.028 A 
HETATM   10  C7  UNL     1       8.002   1.729  35.766  1.00  0.00     0.018 A 
HETATM   11  C8  UNL     1       7.124   0.658  35.591  1.00  0.00     0.033 A 
HETATM   12  C24 UNL     1       6.952   0.085  34.329  1.00  0.00     0.033 A 
BRANCH  11  13
HETATM   13  C9  UNL     1       6.308   0.165  36.723  1.00  0.00     0.253 C 
HETATM   14  O2  UNL     1       5.194   0.656  36.883  1.00  0.00    -0.267 OA
HETATM   15  N2  UNL     1       6.842  -0.812  37.563  1.00  0.00    -0.348 N 
HETATM   16  C10 UNL     1       7.991  -1.653  37.222  1.00  0.00     0.128 C 
HETATM   17  C14 UNL     1       6.090  -1.158  38.765  1.00  0.00     0.128 C 
HETATM   18  C11 UNL     1       7.819  -3.069  37.762  1.00  0.00     0.051 C 
HETATM   19  C12 UNL     1       7.664  -3.096  39.303  1.00  0.00     0.040 C 
HETATM   20  C13 UNL     1       6.987  -1.796  39.817  1.00  0.00     0.051 C 
HETATM   21  C15 UNL     1       6.796  -4.348  39.681  1.00  0.00     0.073 C 
HETATM   22  N5  UNL     1       9.018  -3.193  39.915  1.00  0.00    -0.346 N 
HETATM   23  C16 UNL     1       6.971  -4.691  41.116  1.00  0.00    -0.003 A 
HETATM   24  C17 UNL     1       6.176  -5.358  42.016  1.00  0.00     0.123 A 
HETATM   25  C22 UNL     1       8.132  -4.324  41.837  1.00  0.00     0.152 A 
HETATM   26  N3  UNL     1       6.881  -5.387  43.195  1.00  0.00    -0.271 N 
HETATM   27  N4  UNL     1       8.062  -4.734  43.110  1.00  0.00    -0.166 NA
HETATM   28  C23 UNL     1       9.240  -3.577  41.233  1.00  0.00     0.273 C 
HETATM   29  O3  UNL     1      10.301  -3.295  41.784  1.00  0.00    -0.266 OA
HETATM   30  H28 UNL     1       9.757  -2.585  39.583  1.00  0.00     0.163 HD
BRANCH  26  31
HETATM   31  C18 UNL     1       6.446  -5.955  44.486  1.00  0.00     0.044 C 
HETATM   32  C19 UNL     1       6.737  -7.472  44.559  1.00  0.00     0.039 C 
HETATM   33  C20 UNL     1       4.928  -5.770  44.696  1.00  0.00     0.039 C 
HETATM   34  C21 UNL     1       7.208  -5.247  45.619  1.00  0.00     0.039 C 
ENDBRANCH  26  31
ENDBRANCH  11  13
ENDBRANCH   2   3
TORSDOF 3
ENDMDL
MODEL 3
REMARK VINA RESULT:    -8.383     42.529     44.882
REMARK INTER + INTRA:         -10.327
REMARK INTER:                 -10.060
REMARK INTRA:                  -0.267
REMARK UNBOUND:                -0.475
REMARK  3 active torsions:
REMARK  status: ('A' for Active; 'I' for Inactive)
REMARK    1  A    between atoms: O1_2  and  C2_3 
REMARK    2  A    between atoms: C8_10  and  C9_11 
REMARK       I    between atoms: C9_11  and  N2_13 
REMARK    3  A    between atoms: N3_22  and  C18_23 
ROOT
HETATM    1  C1  UNL     1      13.641 -37.208  15.268  1.00  0.00     0.211 C 
HETATM    2  O1  UNL     1      13.050 -36.898  14.009  1.00  0.00    -0.339 OA
ENDROOT
BRANCH   2   3
HETATM    3  C2  UNL     1      11.678 -36.718  14.076  1.00  0.00     0.175 A 
HETATM    4  N1  UNL     1      11.090 -36.677  15.294  1.00  0.00    -0.236 NA
HETATM    5  C3  UNL     1       9.753 -36.520  15.319  1.00  0.00     0.120 A 
HETATM    6  C4  UNL     1       8.966 -36.403  14.184  1.00  0.00     0.031 A 
HETATM    7  C5  UNL     1       9.583 -36.443  12.930  1.00  0.00    -0.020 A 
HETATM    8  C6  UNL     1       8.831 -36.308  11.749  1.00  0.00     0.013 A 
HETATM    9  C25 UNL     1      10.983 -36.607  12.856  1.00  0.00     0.028 A 
HETATM   10  C7  UNL     1       9.454 -36.344  10.500  1.00  0.00     0.018 A 
HETATM   11  C8  UNL     1      10.836 -36.529  10.421  1.00  0.00     0.033 A 
HETATM   12  C24 UNL     1      11.600 -36.642  11.585  1.00  0.00     0.033 A 
BRANCH  11  13
HETATM   13  C9  UNL     1      11.518 -36.531   9.108  1.00  0.00     0.253 C 
HETATM   14  O2  UNL     1      12.078 -37.564   8.754  1.00  0.00    -0.267 OA
HETATM   15  N2  UNL     1      11.514 -35.363   8.345  1.00  0.00    -0.348 N 
HETATM   16  C10 UNL     1      10.594 -34.243   8.559  1.00  0.00     0.128 C 
HETATM   17  C14 UNL     1      12.333 -35.338   7.138  1.00  0.00     0.128 C 
HETATM   18  C11 UNL     1      10.172 -33.615   7.235  1.00  0.00     0.051 C 
HETATM   19  C12 UNL     1      11.379 -33.078   6.427  1.00  0.00     0.040 C 
HETATM   20  C13 UNL     1      12.657 -33.911   6.716  1.00  0.00     0.051 C 
HETATM   21  C15 UNL     1      11.014 -33.152   4.901  1.00  0.00     0.073 C 
HETATM   22  N5  UNL     1      11.636 -31.669   6.835  1.00  0.00    -0.346 N 
HETATM   23  C16 UNL     1      11.906 -32.269   4.107  1.00  0.00    -0.003 A 
HETATM   24  C17 UNL     1      12.298 -32.285   2.791  1.00  0.00     0.123 A 
HETATM   25  C22 UNL     1      12.555 -31.149   4.681  1.00  0.00     0.152 A 
HETATM   26  N3  UNL     1      13.118 -31.195   2.627  1.00  0.00    -0.271 N 
HETATM   27  N4  UNL     1      13.309 -30.510   3.777  1.00  0.00    -0.166 NA
HETATM   28  C23 UNL     1      12.405 -30.780   6.092  1.00  0.00     0.273 C 
HETATM   29  O3  UNL     1      12.881 -29.783   6.628  1.00  0.00    -0.266 OA
HETATM   30  H28 UNL     1      11.658 -31.435   7.820  1.00  0.00     0.163 HD
BRANCH  26  31
HETATM   31  C18 UNL     1      13.834 -30.787   1.401  1.00  0.00     0.044 C 
HETATM   32  C19 UNL     1      15.340 -31.125   1.491  1.00  0.00     0.039 C 
HETATM   33  C20 UNL     1      13.719 -29.266   1.166  1.00  0.00     0.039 C 
HETATM   34  C21 UNL     1      13.226 -31.536   0.202  1.00  0.00     0.039 C 
ENDBRANCH  26  31
ENDBRANCH  11  13
ENDBRANCH   2   3
TORSDOF 3
ENDMDL
MODEL 4
REMARK VINA RESULT:    -8.212     35.846     36.944
REMARK INTER + INTRA:         -10.127
REMARK INTER:                  -9.726
REMARK INTRA:                  -0.400
REMARK UNBOUND:                -0.475
REMARK  3 active torsions:
REMARK  status: ('A' for Active; 'I' for Inactive)
REMARK    1  A    between atoms: O1_2  and  C2_3 
REMARK    2  A    between atoms: C8_10  and  C9_11 
REMARK       I    between atoms: C9_11  and  N2_13 
REMARK    3  A    between atoms: N3_22  and  C18_23 
ROOT
HETATM    1  C1  UNL     1      28.506 -30.823  22.858  1.00  0.00     0.211 C 
HETATM    2  O1  UNL     1      27.601 -30.352  23.853  1.00  0.00    -0.339 OA
ENDROOT
BRANCH   2   3
HETATM    3  C2  UNL     1      26.285 -30.708  23.610  1.00  0.00     0.175 A 
HETATM    4  N1  UNL     1      25.642 -30.134  22.565  1.00  0.00    -0.236 NA
HETATM    5  C3  UNL     1      24.358 -30.491  22.370  1.00  0.00     0.120 A 
HETATM    6  C4  UNL     1      23.676 -31.393  23.171  1.00  0.00     0.031 A 
HETATM    7  C5  UNL     1      24.348 -31.983  24.245  1.00  0.00    -0.020 A 
HETATM    8  C6  UNL     1      23.707 -32.920  25.075  1.00  0.00     0.013 A 
HETATM    9  C25 UNL     1      25.696 -31.638  24.488  1.00  0.00     0.028 A 
HETATM   10  C7  UNL     1      24.386 -33.510  26.143  1.00  0.00     0.018 A 
HETATM   11  C8  UNL     1      25.712 -33.155  26.400  1.00  0.00     0.033 A 
HETATM   12  C24 UNL     1      26.371 -32.242  25.573  1.00  0.00     0.033 A 
BRANCH  11  13
HETATM   13  C9  UNL     1      26.459 -33.797  27.504  1.00  0.00     0.253 C 
HETATM   14  O2  UNL     1      27.492 -34.398  27.224  1.00  0.00    -0.267 OA
HETATM   15  N2  UNL     1      25.952 -33.711  28.800  1.00  0.00    -0.348 N 
HETATM   16  C10 UNL     1      24.938 -32.743  29.225  1.00  0.00     0.128 C 
HETATM   17  C14 UNL     1      26.613 -34.491  29.841  1.00  0.00     0.128 C 
HETATM   18  C11 UNL     1      25.206 -32.250  30.643  1.00  0.00     0.051 C 
HETATM   19  C12 UNL     1      25.208 -33.404  31.676  1.00  0.00     0.040 C 
HETATM   20  C13 UNL     1      25.689 -34.730  31.028  1.00  0.00     0.051 C 
HETATM   21  C15 UNL     1      26.164 -32.997  32.855  1.00  0.00     0.073 C 
HETATM   22  N5  UNL     1      23.819 -33.600  32.174  1.00  0.00    -0.346 N 
HETATM   23  C16 UNL     1      25.884 -33.819  34.061  1.00  0.00    -0.003 A 
HETATM   24  C17 UNL     1      26.653 -34.173  35.143  1.00  0.00     0.123 A 
HETATM   25  C22 UNL     1      24.625 -34.428  34.277  1.00  0.00     0.152 A 
HETATM   26  N3  UNL     1      25.841 -34.931  35.952  1.00  0.00    -0.271 N 
HETATM   27  N4  UNL     1      24.611 -35.121  35.422  1.00  0.00    -0.166 NA
HETATM   28  C23 UNL     1      23.509 -34.302  33.334  1.00  0.00     0.273 C 
HETATM   29  O3  UNL     1      22.375 -34.742  33.500  1.00  0.00    -0.266 OA
HETATM   30  H28 UNL     1      23.056 -33.641  31.509  1.00  0.00     0.163 HD
BRANCH  26  31
HETATM   31  C18 UNL     1      26.203 -35.588  37.223  1.00  0.00     0.044 C 
HETATM   32  C19 UNL     1      27.737 -35.650  37.406  1.00  0.00     0.039 C 
HETATM   33  C20 UNL     1      25.678 -37.038  37.274  1.00  0.00     0.039 C 
HETATM   34  C21 UNL     1      25.595 -34.783  38.386  1.00  0.00     0.039 C 
ENDBRANCH  26  31
ENDBRANCH  11  13
ENDBRANCH   2   3
TORSDOF 3
ENDMDL
MODEL 5
REMARK VINA RESULT:    -8.104     36.614     38.297
REMARK INTER + INTRA:         -10.000
REMARK INTER:                  -9.448
REMARK INTRA:                  -0.552
REMARK UNBOUND:                -0.475
REMARK  3 active torsions:
REMARK  status: ('A' for Active; 'I' for Inactive)
REMARK    1  A    between atoms: O1_2  and  C2_3 
REMARK    2  A    between atoms: C8_10  and  C9_11 
REMARK       I    between atoms: C9_11  and  N2_13 
REMARK    3  A    between atoms: N3_22  and  C18_23 
ROOT
HETATM    1  C1  UNL     1      34.283 -31.878  22.852  1.00  0.00     0.211 C 
HETATM    2  O1  UNL     1      32.920 -32.014  23.243  1.00  0.00    -0.339 OA
ENDROOT
BRANCH   2   3
HETATM    3  C2  UNL     1      32.026 -31.666  22.244  1.00  0.00     0.175 A 
HETATM    4  N1  UNL     1      32.375 -31.892  20.956  1.00  0.00    -0.236 NA
HETATM    5  C3  UNL     1      31.488 -31.524  20.012  1.00  0.00     0.120 A 
HETATM    6  C4  UNL     1      30.264 -30.936  20.287  1.00  0.00     0.031 A 
HETATM    7  C5  UNL     1      29.910 -30.710  21.620  1.00  0.00    -0.020 A 
HETATM    8  C6  UNL     1      28.670 -30.134  21.954  1.00  0.00     0.013 A 
HETATM    9  C25 UNL     1      30.810 -31.079  22.644  1.00  0.00     0.028 A 
HETATM   10  C7  UNL     1      28.321 -29.916  23.288  1.00  0.00     0.018 A 
HETATM   11  C8  UNL     1      29.217 -30.259  24.302  1.00  0.00     0.033 A 
HETATM   12  C24 UNL     1      30.444 -30.851  23.991  1.00  0.00     0.033 A 
BRANCH  11  13
HETATM   13  C9  UNL     1      28.849 -30.070  25.723  1.00  0.00     0.253 C 
HETATM   14  O2  UNL     1      29.208 -29.035  26.276  1.00  0.00    -0.267 OA
HETATM   15  N2  UNL     1      28.134 -31.076  26.373  1.00  0.00    -0.348 N 
HETATM   16  C10 UNL     1      27.404 -32.143  25.685  1.00  0.00     0.128 C 
HETATM   17  C14 UNL     1      27.930 -30.943  27.811  1.00  0.00     0.128 C 
HETATM   18  C11 UNL     1      26.110 -32.486  26.415  1.00  0.00     0.051 C 
HETATM   19  C12 UNL     1      26.362 -32.958  27.869  1.00  0.00     0.040 C 
HETATM   20  C13 UNL     1      27.634 -32.289  28.458  1.00  0.00     0.051 C 
HETATM   21  C15 UNL     1      25.102 -32.579  28.727  1.00  0.00     0.073 C 
HETATM   22  N5  UNL     1      26.567 -34.432  27.862  1.00  0.00    -0.346 N 
HETATM   23  C16 UNL     1      25.071 -33.369  29.985  1.00  0.00    -0.003 A 
HETATM   24  C17 UNL     1      24.492 -33.143  31.210  1.00  0.00     0.123 A 
HETATM   25  C22 UNL     1      25.723 -34.620  30.100  1.00  0.00     0.152 A 
HETATM   26  N3  UNL     1      24.787 -34.244  31.976  1.00  0.00    -0.271 N 
HETATM   27  N4  UNL     1      25.563 -35.140  31.324  1.00  0.00    -0.166 NA
HETATM   28  C23 UNL     1      26.479 -35.227  29.000  1.00  0.00     0.273 C 
HETATM   29  O3  UNL     1      27.002 -36.337  29.015  1.00  0.00    -0.266 OA
HETATM   30  H28 UNL     1      27.192 -34.843  27.178  1.00  0.00     0.163 HD
BRANCH  26  31
HETATM   31  C18 UNL     1      24.428 -34.476  33.390  1.00  0.00     0.044 C 
HETATM   32  C19 UNL     1      24.889 -35.873  33.865  1.00  0.00     0.039 C 
HETATM   33  C20 UNL     1      22.900 -34.403  33.598  1.00  0.00     0.039 C 
HETATM   34  C21 UNL     1      25.112 -33.404  34.256  1.00  0.00     0.039 C 
ENDBRANCH  26  31
ENDBRANCH  11  13
ENDBRANCH   2   3
TORSDOF 3
ENDMDL
MODEL 6
REMARK VINA RESULT:    -7.877      2.030      2.253
REMARK INTER + INTRA:          -9.733
REMARK INTER:                  -9.436
REMARK INTRA:                  -0.297
REMARK UNBOUND:                -0.475
REMARK  3 active torsions:
REMARK  status: ('A' for Active; 'I' for Inactive)
REMARK    1  A    between atoms: O1_2  and  C2_3 
REMARK    2  A    between atoms: C8_10  and  C9_11 
REMARK       I    between atoms: C9_11  and  N2_13 
REMARK    3  A    between atoms: N3_22  and  C18_23 
ROOT
HETATM    1  C1  UNL     1       8.976   2.191  35.971  1.00  0.00     0.211 C 
HETATM    2  O1  UNL     1       7.668   2.349  35.428  1.00  0.00    -0.339 OA
ENDROOT
BRANCH   2   3
HETATM    3  C2  UNL     1       7.512   1.749  34.190  1.00  0.00     0.175 A 
HETATM    4  N1  UNL     1       8.228   2.226  33.145  1.00  0.00    -0.236 NA
HETATM    5  C3  UNL     1       8.037   1.629  31.953  1.00  0.00     0.120 A 
HETATM    6  C4  UNL     1       7.160   0.576  31.747  1.00  0.00     0.031 A 
HETATM    7  C5  UNL     1       6.427   0.088  32.832  1.00  0.00    -0.020 A 
HETATM    8  C6  UNL     1       5.538  -0.993  32.680  1.00  0.00     0.013 A 
HETATM    9  C25 UNL     1       6.595   0.684  34.102  1.00  0.00     0.028 A 
HETATM   10  C7  UNL     1       4.814  -1.479  33.770  1.00  0.00     0.018 A 
HETATM   11  C8  UNL     1       4.960  -0.878  35.021  1.00  0.00     0.033 A 
HETATM   12  C24 UNL     1       5.854   0.182  35.196  1.00  0.00     0.033 A 
BRANCH  11  13
HETATM   13  C9  UNL     1       4.229  -1.404  36.196  1.00  0.00     0.253 C 
HETATM   14  O2  UNL     1       3.019  -1.578  36.087  1.00  0.00    -0.267 OA
HETATM   15  N2  UNL     1       4.936  -1.658  37.371  1.00  0.00    -0.348 N 
HETATM   16  C10 UNL     1       6.393  -1.792  37.443  1.00  0.00     0.128 C 
HETATM   17  C14 UNL     1       4.170  -2.013  38.560  1.00  0.00     0.128 C 
HETATM   18  C11 UNL     1       6.800  -2.860  38.452  1.00  0.00     0.051 C 
HETATM   19  C12 UNL     1       6.291  -2.544  39.880  1.00  0.00     0.040 C 
HETATM   20  C13 UNL     1       4.962  -1.743  39.833  1.00  0.00     0.051 C 
HETATM   21  C15 UNL     1       6.078  -3.907  40.631  1.00  0.00     0.073 C 
HETATM   22  N5  UNL     1       7.314  -1.717  40.578  1.00  0.00    -0.346 N 
HETATM   23  C16 UNL     1       6.025  -3.691  42.100  1.00  0.00    -0.003 A 
HETATM   24  C17 UNL     1       5.456  -4.407  43.125  1.00  0.00     0.123 A 
HETATM   25  C22 UNL     1       6.633  -2.570  42.714  1.00  0.00     0.152 A 
HETATM   26  N3  UNL     1       5.758  -3.723  44.277  1.00  0.00    -0.271 N 
HETATM   27  N4  UNL     1       6.450  -2.585  44.041  1.00  0.00    -0.166 NA
HETATM   28  C23 UNL     1       7.350  -1.540  41.956  1.00  0.00     0.273 C 
HETATM   29  O3  UNL     1       7.959  -0.588  42.437  1.00  0.00    -0.266 OA
HETATM   30  H28 UNL     1       7.720  -0.923  40.097  1.00  0.00     0.163 HD
BRANCH  26  31
HETATM   31  C18 UNL     1       5.342  -4.057  45.654  1.00  0.00     0.044 C 
HETATM   32  C19 UNL     1       6.492  -4.726  46.442  1.00  0.00     0.039 C 
HETATM   33  C20 UNL     1       4.154  -5.042  45.656  1.00  0.00     0.039 C 
HETATM   34  C21 UNL     1       4.933  -2.761  46.375  1.00  0.00     0.039 C 
ENDBRANCH  26  31
ENDBRANCH  11  13
ENDBRANCH   2   3
TORSDOF 3
ENDMDL
MODEL 7
REMARK VINA RESULT:    -7.851     11.420     16.532
REMARK INTER + INTRA:          -9.702
REMARK INTER:                  -9.097
REMARK INTRA:                  -0.605
REMARK UNBOUND:                -0.475
REMARK  3 active torsions:
REMARK  status: ('A' for Active; 'I' for Inactive)
REMARK    1  A    between atoms: O1_2  and  C2_3 
REMARK    2  A    between atoms: C8_10  and  C9_11 
REMARK       I    between atoms: C9_11  and  N2_13 
REMARK    3  A    between atoms: N3_22  and  C18_23 
ROOT
HETATM    1  C1  UNL     1       5.112  -2.007  48.088  1.00  0.00     0.211 C 
HETATM    2  O1  UNL     1       5.617  -2.667  49.245  1.00  0.00    -0.339 OA
ENDROOT
BRANCH   2   3
HETATM    3  C2  UNL     1       5.987  -3.981  49.010  1.00  0.00     0.175 A 
HETATM    4  N1  UNL     1       5.601  -4.565  47.852  1.00  0.00    -0.236 NA
HETATM    5  C3  UNL     1       5.963  -5.849  47.666  1.00  0.00     0.120 A 
HETATM    6  C4  UNL     1       6.693  -6.587  48.584  1.00  0.00     0.031 A 
HETATM    7  C5  UNL     1       7.091  -5.975  49.777  1.00  0.00    -0.020 A 
HETATM    8  C6  UNL     1       7.851  -6.674  50.732  1.00  0.00     0.013 A 
HETATM    9  C25 UNL     1       6.732  -4.629  50.014  1.00  0.00     0.028 A 
HETATM   10  C7  UNL     1       8.249  -6.056  51.918  1.00  0.00     0.018 A 
HETATM   11  C8  UNL     1       7.878  -4.733  52.167  1.00  0.00     0.033 A 
HETATM   12  C24 UNL     1       7.142  -4.016  51.220  1.00  0.00     0.033 A 
BRANCH  11  13
HETATM   13  C9  UNL     1       8.323  -4.048  53.401  1.00  0.00     0.253 C 
HETATM   14  O2  UNL     1       7.727  -4.301  54.444  1.00  0.00    -0.267 OA
HETATM   15  N2  UNL     1       9.378  -3.139  53.324  1.00  0.00    -0.348 N 
HETATM   16  C10 UNL     1      10.320  -3.064  52.204  1.00  0.00     0.128 C 
HETATM   17  C14 UNL     1       9.687  -2.355  54.515  1.00  0.00     0.128 C 
HETATM   18  C11 UNL     1      11.729  -2.737  52.689  1.00  0.00     0.051 C 
HETATM   19  C12 UNL     1      11.792  -1.386  53.443  1.00  0.00     0.040 C 
HETATM   20  C13 UNL     1      10.449  -1.085  54.162  1.00  0.00     0.051 C 
HETATM   21  C15 UNL     1      12.962  -1.468  54.488  1.00  0.00     0.073 C 
HETATM   22  N5  UNL     1      12.049  -0.302  52.455  1.00  0.00    -0.346 N 
HETATM   23  C16 UNL     1      13.370  -0.107  54.923  1.00  0.00    -0.003 A 
HETATM   24  C17 UNL     1      13.983   0.360  56.060  1.00  0.00     0.123 A 
HETATM   25  C22 UNL     1      13.148   1.035  54.117  1.00  0.00     0.152 A 
HETATM   26  N3  UNL     1      14.124   1.716  55.884  1.00  0.00    -0.271 N 
HETATM   27  N4  UNL     1      13.592   2.146  54.717  1.00  0.00    -0.166 NA
HETATM   28  C23 UNL     1      12.499   0.967  52.804  1.00  0.00     0.273 C 
HETATM   29  O3  UNL     1      12.346   1.907  52.029  1.00  0.00    -0.266 OA
HETATM   30  H28 UNL     1      11.509  -0.274  51.599  1.00  0.00     0.163 HD
BRANCH  26  31
HETATM   31  C18 UNL     1      14.688   2.690  56.839  1.00  0.00     0.044 C 
HETATM   32  C19 UNL     1      14.879   2.060  58.238  1.00  0.00     0.039 C 
HETATM   33  C20 UNL     1      13.759   3.910  57.009  1.00  0.00     0.039 C 
HETATM   34  C21 UNL     1      16.056   3.160  56.314  1.00  0.00     0.039 C 
ENDBRANCH  26  31
ENDBRANCH  11  13
ENDBRANCH   2   3
TORSDOF 3
ENDMDL
MODEL 8
REMARK VINA RESULT:    -7.604      2.526     10.464
REMARK INTER + INTRA:          -9.412
REMARK INTER:                  -8.795
REMARK INTRA:                  -0.617
REMARK UNBOUND:                -0.475
REMARK  3 active torsions:
REMARK  status: ('A' for Active; 'I' for Inactive)
REMARK    1  A    between atoms: O1_2  and  C2_3 
REMARK    2  A    between atoms: C8_10  and  C9_11 
REMARK       I    between atoms: C9_11  and  N2_13 
REMARK    3  A    between atoms: N3_22  and  C18_23 
ROOT
HETATM    1  C1  UNL     1       7.489  -7.817  44.316  1.00  0.00     0.211 C 
HETATM    2  O1  UNL     1       7.507  -6.408  44.102  1.00  0.00    -0.339 OA
ENDROOT
BRANCH   2   3
HETATM    3  C2  UNL     1       6.485  -5.741  44.757  1.00  0.00     0.175 A 
HETATM    4  N1  UNL     1       5.774  -6.408  45.696  1.00  0.00    -0.236 NA
HETATM    5  C3  UNL     1       4.776  -5.733  46.298  1.00  0.00     0.120 A 
HETATM    6  C4  UNL     1       4.446  -4.419  46.008  1.00  0.00     0.031 A 
HETATM    7  C5  UNL     1       5.188  -3.736  45.039  1.00  0.00    -0.020 A 
HETATM    8  C6  UNL     1       4.907  -2.394  44.723  1.00  0.00     0.013 A 
HETATM    9  C25 UNL     1       6.244  -4.405  44.381  1.00  0.00     0.028 A 
HETATM   10  C7  UNL     1       5.655  -1.717  43.758  1.00  0.00     0.018 A 
HETATM   11  C8  UNL     1       6.685  -2.382  43.089  1.00  0.00     0.033 A 
HETATM   12  C24 UNL     1       6.992  -3.708  43.406  1.00  0.00     0.033 A 
BRANCH  11  13
HETATM   13  C9  UNL     1       7.513  -1.669  42.091  1.00  0.00     0.253 C 
HETATM   14  O2  UNL     1       8.548  -1.135  42.480  1.00  0.00    -0.267 OA
HETATM   15  N2  UNL     1       7.077  -1.617  40.768  1.00  0.00    -0.348 N 
HETATM   16  C10 UNL     1       6.058  -2.505  40.201  1.00  0.00     0.128 C 
HETATM   17  C14 UNL     1       7.819  -0.770  39.841  1.00  0.00     0.128 C 
HETATM   18  C11 UNL     1       6.389  -2.875  38.759  1.00  0.00     0.051 C 
HETATM   19  C12 UNL     1       6.487  -1.632  37.840  1.00  0.00     0.040 C 
HETATM   20  C13 UNL     1       6.972  -0.389  38.635  1.00  0.00     0.051 C 
HETATM   21  C15 UNL     1       7.493  -1.964  36.681  1.00  0.00     0.073 C 
HETATM   22  N5  UNL     1       5.134  -1.340  37.291  1.00  0.00    -0.346 N 
HETATM   23  C16 UNL     1       7.308  -1.025  35.544  1.00  0.00    -0.003 A 
HETATM   24  C17 UNL     1       8.147  -0.603  34.542  1.00  0.00     0.123 A 
HETATM   25  C22 UNL     1       6.082  -0.353  35.320  1.00  0.00     0.152 A 
HETATM   26  N3  UNL     1       7.406   0.256  33.766  1.00  0.00    -0.271 N 
HETATM   27  N4  UNL     1       6.155   0.442  34.245  1.00  0.00    -0.166 NA
HETATM   28  C23 UNL     1       4.912  -0.524  36.186  1.00  0.00     0.273 C 
HETATM   29  O3  UNL     1       3.804  -0.029  36.002  1.00  0.00    -0.266 OA
HETATM   30  H28 UNL     1       4.337  -1.332  37.915  1.00  0.00     0.163 HD
BRANCH  26  31
HETATM   31  C18 UNL     1       7.860   1.013  32.582  1.00  0.00     0.044 C 
HETATM   32  C19 UNL     1       8.894   2.095  32.970  1.00  0.00     0.039 C 
HETATM   33  C20 UNL     1       6.682   1.733  31.893  1.00  0.00     0.039 C 
HETATM   34  C21 UNL     1       8.511   0.034  31.590  1.00  0.00     0.039 C 
ENDBRANCH  26  31
ENDBRANCH  11  13
ENDBRANCH   2   3
TORSDOF 3
ENDMDL
MODEL 9
REMARK VINA RESULT:    -7.573     43.253     44.778
REMARK INTER + INTRA:          -9.376
REMARK INTER:                  -8.803
REMARK INTRA:                  -0.572
REMARK UNBOUND:                -0.475
REMARK  3 active torsions:
REMARK  status: ('A' for Active; 'I' for Inactive)
REMARK    1  A    between atoms: O1_2  and  C2_3 
REMARK    2  A    between atoms: C8_10  and  C9_11 
REMARK       I    between atoms: C9_11  and  N2_13 
REMARK    3  A    between atoms: N3_22  and  C18_23 
ROOT
HETATM    1  C1  UNL     1      10.436 -28.321   0.988  1.00  0.00     0.211 C 
HETATM    2  O1  UNL     1      11.730 -27.751   1.162  1.00  0.00    -0.339 OA
ENDROOT
BRANCH   2   3
HETATM    3  C2  UNL     1      12.732 -28.454   0.512  1.00  0.00     0.175 A 
HETATM    4  N1  UNL     1      12.890 -28.271  -0.820  1.00  0.00    -0.236 NA
HETATM    5  C3  UNL     1      13.861 -28.985  -1.421  1.00  0.00     0.120 A 
HETATM    6  C4  UNL     1      14.686 -29.880  -0.758  1.00  0.00     0.031 A 
HETATM    7  C5  UNL     1      14.518 -30.059   0.618  1.00  0.00    -0.020 A 
HETATM    8  C6  UNL     1      15.343 -30.941   1.340  1.00  0.00     0.013 A 
HETATM    9  C25 UNL     1      13.511 -29.332   1.290  1.00  0.00     0.028 A 
HETATM   10  C7  UNL     1      15.173 -31.111   2.715  1.00  0.00     0.018 A 
HETATM   11  C8  UNL     1      14.164 -30.411   3.379  1.00  0.00     0.033 A 
HETATM   12  C24 UNL     1      13.349 -29.515   2.682  1.00  0.00     0.033 A 
BRANCH  11  13
HETATM   13  C9  UNL     1      13.993 -30.550   4.843  1.00  0.00     0.253 C 
HETATM   14  O2  UNL     1      14.411 -29.645   5.558  1.00  0.00    -0.267 OA
HETATM   15  N2  UNL     1      13.389 -31.703   5.343  1.00  0.00    -0.348 N 
HETATM   16  C10 UNL     1      12.585 -32.627   4.539  1.00  0.00     0.128 C 
HETATM   17  C14 UNL     1      13.384 -31.894   6.790  1.00  0.00     0.128 C 
HETATM   18  C11 UNL     1      11.409 -33.176   5.340  1.00  0.00     0.051 C 
HETATM   19  C12 UNL     1      11.866 -33.940   6.608  1.00  0.00     0.040 C 
HETATM   20  C13 UNL     1      13.198 -33.360   7.157  1.00  0.00     0.051 C 
HETATM   21  C15 UNL     1      10.732 -33.811   7.687  1.00  0.00     0.073 C 
HETATM   22  N5  UNL     1      12.088 -35.368   6.250  1.00  0.00    -0.346 N 
HETATM   23  C16 UNL     1      10.885 -34.855   8.733  1.00  0.00    -0.003 A 
HETATM   24  C17 UNL     1      10.478 -34.925  10.043  1.00  0.00     0.123 A 
HETATM   25  C22 UNL     1      11.564 -36.072   8.483  1.00  0.00     0.152 A 
HETATM   26  N3  UNL     1      10.891 -36.152  10.502  1.00  0.00    -0.271 N 
HETATM   27  N4  UNL     1      11.582 -36.850   9.572  1.00  0.00    -0.166 NA
HETATM   28  C23 UNL     1      12.169 -36.392   7.186  1.00  0.00     0.273 C 
HETATM   29  O3  UNL     1      12.704 -37.456   6.887  1.00  0.00    -0.266 OA
HETATM   30  H28 UNL     1      12.618 -35.593   5.416  1.00  0.00     0.163 HD
BRANCH  26  31
HETATM   31  C18 UNL     1      10.734 -36.699  11.865  1.00  0.00     0.044 C 
HETATM   32  C19 UNL     1       9.774 -37.912  11.875  1.00  0.00     0.039 C 
HETATM   33  C20 UNL     1      10.148 -35.645  12.827  1.00  0.00     0.039 C 
HETATM   34  C21 UNL     1      12.112 -37.150  12.378  1.00  0.00     0.039 C 
ENDBRANCH  26  31
ENDBRANCH  11  13
ENDBRANCH   2   3
TORSDOF 3
ENDMDL
MODEL 10
REMARK VINA RESULT:    -7.502     36.273     37.477
REMARK INTER + INTRA:          -9.292
REMARK INTER:                  -9.270
REMARK INTRA:                  -0.022
REMARK UNBOUND:                -0.475
REMARK  3 active torsions:
REMARK  status: ('A' for Active; 'I' for Inactive)
REMARK    1  A    between atoms: O1_2  and  C2_3 
REMARK    2  A    between atoms: C8_10  and  C9_11 
REMARK       I    between atoms: C9_11  and  N2_13 
REMARK    3  A    between atoms: N3_22  and  C18_23 
ROOT
HETATM    1  C1  UNL     1      30.541 -31.997  25.484  1.00  0.00     0.211 C 
HETATM    2  O1  UNL     1      29.558 -32.668  24.701  1.00  0.00    -0.339 OA
ENDROOT
BRANCH   2   3
HETATM    3  C2  UNL     1      28.861 -31.823  23.853  1.00  0.00     0.175 A 
HETATM    4  N1  UNL     1      29.560 -31.074  22.968  1.00  0.00    -0.236 NA
HETATM    5  C3  UNL     1      28.851 -30.250  22.173  1.00  0.00     0.120 A 
HETATM    6  C4  UNL     1      27.470 -30.133  22.216  1.00  0.00     0.031 A 
HETATM    7  C5  UNL     1      26.756 -30.913  23.130  1.00  0.00    -0.020 A 
HETATM    8  C6  UNL     1      25.353 -30.846  23.200  1.00  0.00     0.013 A 
HETATM    9  C25 UNL     1      27.459 -31.790  23.985  1.00  0.00     0.028 A 
HETATM   10  C7  UNL     1      24.645 -31.632  24.111  1.00  0.00     0.018 A 
HETATM   11  C8  UNL     1      25.338 -32.484  24.973  1.00  0.00     0.033 A 
HETATM   12  C24 UNL     1      26.730 -32.579  24.904  1.00  0.00     0.033 A 
BRANCH  11  13
HETATM   13  C9  UNL     1      24.603 -33.352  25.920  1.00  0.00     0.253 C 
HETATM   14  O2  UNL     1      23.626 -33.964  25.497  1.00  0.00    -0.267 OA
HETATM   15  N2  UNL     1      25.035 -33.422  27.244  1.00  0.00    -0.348 N 
HETATM   16  C10 UNL     1      26.359 -32.996  27.702  1.00  0.00     0.128 C 
HETATM   17  C14 UNL     1      24.198 -34.148  28.193  1.00  0.00     0.128 C 
HETATM   18  C11 UNL     1      26.886 -33.914  28.799  1.00  0.00     0.051 C 
HETATM   19  C12 UNL     1      25.954 -33.947  30.036  1.00  0.00     0.040 C 
HETATM   20  C13 UNL     1      24.475 -33.712  29.626  1.00  0.00     0.051 C 
HETATM   21  C15 UNL     1      26.112 -35.349  30.725  1.00  0.00     0.073 C 
HETATM   22  N5  UNL     1      26.362 -32.858  30.967  1.00  0.00    -0.346 N 
HETATM   23  C16 UNL     1      25.613 -35.303  32.124  1.00  0.00    -0.003 A 
HETATM   24  C17 UNL     1      25.133 -36.271  32.972  1.00  0.00     0.123 A 
HETATM   25  C22 UNL     1      25.559 -34.095  32.860  1.00  0.00     0.152 A 
HETATM   26  N3  UNL     1      24.845 -35.630  34.153  1.00  0.00    -0.271 N 
HETATM   27  N4  UNL     1      25.070 -34.298  34.090  1.00  0.00    -0.166 NA
HETATM   28  C23 UNL     1      25.980 -32.805  32.303  1.00  0.00     0.273 C 
HETATM   29  O3  UNL     1      26.026 -31.741  32.913  1.00  0.00    -0.266 OA
HETATM   30  H28 UNL     1      26.531 -31.930  30.600  1.00  0.00     0.163 HD
BRANCH  26  31
HETATM   31  C18 UNL     1      24.263 -36.221  35.375  1.00  0.00     0.044 C 
HETATM   32  C19 UNL     1      22.720 -36.114  35.370  1.00  0.00     0.039 C 
HETATM   33  C20 UNL     1      24.767 -35.497  36.641  1.00  0.00     0.039 C 
HETATM   34  C21 UNL     1      24.659 -37.706  35.443  1.00  0.00     0.039 C 
ENDBRANCH  26  31
ENDBRANCH  11  13
ENDBRANCH   2   3
TORSDOF 3
ENDMDL
