MODEL 1
REMARK VINA RESULT:    -7.315      0.000      0.000
REMARK INTER + INTRA:         -10.208
REMARK INTER:                  -9.880
REMARK INTRA:                  -0.327
REMARK UNBOUND:                -0.327
REMARK  6 active torsions:
REMARK  status: ('A' for Active; 'I' for Inactive)
REMARK    1  A    between atoms: O1_2  and  C2_3 
REMARK    2  A    between atoms: C2_3  and  C3_5 
REMARK    3  A    between atoms: C3_5  and  C4_6 
REMARK    4  A    between atoms: C4_6  and  C5_7 
REMARK    5  A    between atoms: C5_7  and  N1_8 
REMARK    6  A    between atoms: C13_18  and  C14_19 
ROOT
HETATM    1  C1  UNL     1       5.993  -0.359  31.861  1.00  0.00     0.213 C 
HETATM    2  O1  UNL     1       5.816  -0.672  33.242  1.00  0.00    -0.326 OA
ENDROOT
BRANCH   2   3
HETATM    3  C2  UNL     1       4.773  -1.508  33.492  1.00  0.00     0.258 C 
HETATM    4  O2  UNL     1       3.930  -1.857  32.676  1.00  0.00    -0.265 OA
BRANCH   3   5
HETATM    5  C3  UNL     1       4.765  -1.929  34.937  1.00  0.00     0.112 C 
BRANCH   5   6
HETATM    6  C4  UNL     1       5.419  -3.295  35.090  1.00  0.00     0.030 C 
BRANCH   6   7
HETATM    7  C5  UNL     1       6.486  -3.276  36.181  1.00  0.00     0.129 C 
BRANCH   7   8
HETATM    8  N1  UNL     1       6.980  -1.923  36.415  1.00  0.00    -0.327 N 
HETATM    9  C6  UNL     1       7.922  -1.391  35.550  1.00  0.00     0.257 C 
HETATM   10  O3  UNL     1       8.394  -2.011  34.600  1.00  0.00    -0.267 OA
HETATM   11  C7  UNL     1       8.352  -0.002  35.804  1.00  0.00     0.053 A 
HETATM   12  C8  UNL     1       9.406   0.559  35.072  1.00  0.00     0.019 A 
HETATM   13  C12 UNL     1       7.664   0.739  36.767  1.00  0.00     0.026 A 
HETATM   14  C9  UNL     1       9.767   1.887  35.288  1.00  0.00     0.001 A 
HETATM   15  C10 UNL     1       9.065   2.652  36.217  1.00  0.00     0.002 A 
HETATM   16  C11 UNL     1       8.009   2.084  36.939  1.00  0.00     0.024 A 
HETATM   17  N2  UNL     1       6.560   0.207  37.440  1.00  0.00    -0.266 NA
HETATM   18  C13 UNL     1       6.543  -1.236  37.612  1.00  0.00     0.199 C 
HETATM   19  H14 UNL     1       6.375   0.695  38.311  1.00  0.00     0.130 HD
BRANCH  18  20
HETATM   20  C14 UNL     1       7.286  -1.630  38.884  1.00  0.00    -0.018 A 
HETATM   21  C15 UNL     1       7.477  -0.652  39.897  1.00  0.00     0.013 A 
HETATM   22  C16 UNL     1       8.169  -0.948  41.076  1.00  0.00     0.040 A 
HETATM   23  C17 UNL     1       8.668  -2.223  41.221  1.00  0.00     0.105 A 
HETATM   24  C18 UNL     1       8.498  -3.179  40.249  1.00  0.00     0.105 A 
HETATM   25  O5  UNL     1       9.364  -2.687  42.293  1.00  0.00    -0.323 OA
HETATM   26  C19 UNL     1       7.820  -2.918  39.077  1.00  0.00     0.050 A 
HETATM   27  O4  UNL     1       9.067  -4.368  40.588  1.00  0.00    -0.323 OA
HETATM   28  C20 UNL     1       9.615  -4.048  41.884  1.00  0.00     0.352 A 
ENDBRANCH  18  20
ENDBRANCH   7   8
ENDBRANCH   6   7
ENDBRANCH   5   6
ENDBRANCH   3   5
ENDBRANCH   2   3
TORSDOF 6
ENDMDL
MODEL 2
REMARK VINA RESULT:    -7.014     16.349     18.438
REMARK INTER + INTRA:          -9.801
REMARK INTER:                  -8.968
REMARK INTRA:                  -0.834
REMARK UNBOUND:                -0.327
REMARK  6 active torsions:
REMARK  status: ('A' for Active; 'I' for Inactive)
REMARK    1  A    between atoms: O1_2  and  C2_3 
REMARK    2  A    between atoms: C2_3  and  C3_5 
REMARK    3  A    between atoms: C3_5  and  C4_6 
REMARK    4  A    between atoms: C4_6  and  C5_7 
REMARK    5  A    between atoms: C5_7  and  N1_8 
REMARK    6  A    between atoms: C13_18  and  C14_19 
ROOT
HETATM    1  C1  UNL     1      14.073  -7.642  55.150  1.00  0.00     0.213 C 
HETATM    2  O1  UNL     1      14.547  -7.146  53.898  1.00  0.00    -0.326 OA
ENDROOT
BRANCH   2   3
HETATM    3  C2  UNL     1      13.559  -6.795  53.031  1.00  0.00     0.258 C 
HETATM    4  O2  UNL     1      13.210  -7.443  52.053  1.00  0.00    -0.265 OA
BRANCH   3   5
HETATM    5  C3  UNL     1      12.965  -5.467  53.414  1.00  0.00     0.112 C 
BRANCH   5   6
HETATM    6  C4  UNL     1      13.620  -4.349  52.615  1.00  0.00     0.030 C 
BRANCH   6   7
HETATM    7  C5  UNL     1      12.581  -3.351  52.110  1.00  0.00     0.129 C 
BRANCH   7   8
HETATM    8  N1  UNL     1      11.679  -2.940  53.180  1.00  0.00    -0.327 N 
HETATM    9  C6  UNL     1      10.313  -2.951  52.951  1.00  0.00     0.257 C 
HETATM   10  O3  UNL     1       9.810  -3.264  51.875  1.00  0.00    -0.267 OA
HETATM   11  C7  UNL     1       9.444  -2.571  54.082  1.00  0.00     0.053 A 
HETATM   12  C8  UNL     1       8.065  -2.412  53.894  1.00  0.00     0.019 A 
HETATM   13  C12 UNL     1      10.027  -2.406  55.339  1.00  0.00     0.026 A 
HETATM   14  C9  UNL     1       7.251  -2.103  54.981  1.00  0.00     0.001 A 
HETATM   15  C10 UNL     1       7.812  -1.974  56.250  1.00  0.00     0.002 A 
HETATM   16  C11 UNL     1       9.189  -2.141  56.429  1.00  0.00     0.024 A 
HETATM   17  N2  UNL     1      11.390  -2.644  55.544  1.00  0.00    -0.266 NA
HETATM   18  C13 UNL     1      12.262  -2.428  54.403  1.00  0.00     0.199 C 
HETATM   19  H14 UNL     1      11.735  -2.179  56.379  1.00  0.00     0.130 HD
BRANCH  18  20
HETATM   20  C14 UNL     1      12.707  -0.971  54.340  1.00  0.00    -0.018 A 
HETATM   21  C15 UNL     1      13.494  -0.448  55.401  1.00  0.00     0.013 A 
HETATM   22  C16 UNL     1      13.913   0.886  55.410  1.00  0.00     0.040 A 
HETATM   23  C17 UNL     1      13.532   1.683  54.354  1.00  0.00     0.105 A 
HETATM   24  C18 UNL     1      12.765   1.196  53.324  1.00  0.00     0.105 A 
HETATM   25  O5  UNL     1      13.843   2.996  54.197  1.00  0.00    -0.323 OA
HETATM   26  C19 UNL     1      12.337  -0.114  53.287  1.00  0.00     0.050 A 
HETATM   27  O4  UNL     1      12.497   2.145  52.386  1.00  0.00    -0.323 OA
HETATM   28  C20 UNL     1      13.183   3.283  52.946  1.00  0.00     0.352 A 
ENDBRANCH  18  20
ENDBRANCH   7   8
ENDBRANCH   6   7
ENDBRANCH   5   6
ENDBRANCH   3   5
ENDBRANCH   2   3
TORSDOF 6
ENDMDL
MODEL 3
REMARK VINA RESULT:    -6.986     37.089     38.913
REMARK INTER + INTRA:          -9.763
REMARK INTER:                  -8.978
REMARK INTRA:                  -0.785
REMARK UNBOUND:                -0.327
REMARK  6 active torsions:
REMARK  status: ('A' for Active; 'I' for Inactive)
REMARK    1  A    between atoms: O1_2  and  C2_3 
REMARK    2  A    between atoms: C2_3  and  C3_5 
REMARK    3  A    between atoms: C3_5  and  C4_6 
REMARK    4  A    between atoms: C4_6  and  C5_7 
REMARK    5  A    between atoms: C5_7  and  N1_8 
REMARK    6  A    between atoms: C13_18  and  C14_19 
ROOT
HETATM    1  C1  UNL     1      31.462 -26.682  29.571  1.00  0.00     0.213 C 
HETATM    2  O1  UNL     1      30.719 -27.511  28.678  1.00  0.00    -0.326 OA
ENDROOT
BRANCH   2   3
HETATM    3  C2  UNL     1      29.662 -28.142  29.256  1.00  0.00     0.258 C 
HETATM    4  O2  UNL     1      29.444 -28.205  30.458  1.00  0.00    -0.265 OA
BRANCH   3   5
HETATM    5  C3  UNL     1      28.798 -28.796  28.211  1.00  0.00     0.112 C 
BRANCH   5   6
HETATM    6  C4  UNL     1      29.630 -29.144  26.985  1.00  0.00     0.030 C 
BRANCH   6   7
HETATM    7  C5  UNL     1      29.341 -30.565  26.508  1.00  0.00     0.129 C 
BRANCH   7   8
HETATM    8  N1  UNL     1      28.357 -30.571  25.432  1.00  0.00    -0.327 N 
HETATM    9  C6  UNL     1      27.237 -31.378  25.547  1.00  0.00     0.257 C 
HETATM   10  O3  UNL     1      27.034 -32.121  26.505  1.00  0.00    -0.267 OA
HETATM   11  C7  UNL     1      26.250 -31.311  24.452  1.00  0.00     0.053 A 
HETATM   12  C8  UNL     1      25.168 -32.200  24.417  1.00  0.00     0.019 A 
HETATM   13  C12 UNL     1      26.409 -30.324  23.477  1.00  0.00     0.026 A 
HETATM   14  C9  UNL     1      24.217 -32.091  23.405  1.00  0.00     0.001 A 
HETATM   15  C10 UNL     1      24.340 -31.087  22.446  1.00  0.00     0.002 A 
HETATM   16  C11 UNL     1      25.421 -30.200  22.493  1.00  0.00     0.024 A 
HETATM   17  N2  UNL     1      27.442 -29.386  23.556  1.00  0.00    -0.266 NA
HETATM   18  C13 UNL     1      28.654 -29.814  24.234  1.00  0.00     0.199 C 
HETATM   19  H14 UNL     1      27.641 -28.964  22.654  1.00  0.00     0.130 HD
BRANCH  18  20
HETATM   20  C14 UNL     1      29.596 -30.507  23.255  1.00  0.00    -0.018 A 
HETATM   21  C15 UNL     1      29.509 -30.183  21.874  1.00  0.00     0.013 A 
HETATM   22  C16 UNL     1      30.331 -30.801  20.927  1.00  0.00     0.040 A 
HETATM   23  C17 UNL     1      31.229 -31.743  21.376  1.00  0.00     0.105 A 
HETATM   24  C18 UNL     1      31.321 -32.074  22.707  1.00  0.00     0.105 A 
HETATM   25  O5  UNL     1      32.101 -32.443  20.604  1.00  0.00    -0.323 OA
HETATM   26  C19 UNL     1      30.525 -31.482  23.664  1.00  0.00     0.050 A 
HETATM   27  O4  UNL     1      32.266 -33.025  22.938  1.00  0.00    -0.323 OA
HETATM   28  C20 UNL     1      32.756 -33.255  21.601  1.00  0.00     0.352 A 
ENDBRANCH  18  20
ENDBRANCH   7   8
ENDBRANCH   6   7
ENDBRANCH   5   6
ENDBRANCH   3   5
ENDBRANCH   2   3
TORSDOF 6
ENDMDL
MODEL 4
REMARK VINA RESULT:    -6.921     37.468     39.317
REMARK INTER + INTRA:          -9.676
REMARK INTER:                  -8.676
REMARK INTRA:                  -1.000
REMARK UNBOUND:                -0.327
REMARK  6 active torsions:
REMARK  status: ('A' for Active; 'I' for Inactive)
REMARK    1  A    between atoms: O1_2  and  C2_3 
REMARK    2  A    between atoms: C2_3  and  C3_5 
REMARK    3  A    between atoms: C3_5  and  C4_6 
REMARK    4  A    between atoms: C4_6  and  C5_7 
REMARK    5  A    between atoms: C5_7  and  N1_8 
REMARK    6  A    between atoms: C13_18  and  C14_19 
ROOT
HETATM    1  C1  UNL     1      33.004 -34.830  29.034  1.00  0.00     0.213 C 
HETATM    2  O1  UNL     1      31.802 -35.197  28.357  1.00  0.00    -0.326 OA
ENDROOT
BRANCH   2   3
HETATM    3  C2  UNL     1      31.570 -34.489  27.219  1.00  0.00     0.258 C 
HETATM    4  O2  UNL     1      32.430 -34.028  26.481  1.00  0.00    -0.265 OA
BRANCH   3   5
HETATM    5  C3  UNL     1      30.092 -34.311  26.998  1.00  0.00     0.112 C 
BRANCH   5   6
HETATM    6  C4  UNL     1      29.825 -33.857  25.570  1.00  0.00     0.030 C 
BRANCH   6   7
HETATM    7  C5  UNL     1      29.260 -32.439  25.538  1.00  0.00     0.129 C 
BRANCH   7   8
HETATM    8  N1  UNL     1      27.991 -32.392  24.821  1.00  0.00    -0.327 N 
HETATM    9  C6  UNL     1      27.607 -31.210  24.207  1.00  0.00     0.257 C 
HETATM   10  O3  UNL     1      28.269 -30.177  24.257  1.00  0.00    -0.267 OA
HETATM   11  C7  UNL     1      26.337 -31.231  23.455  1.00  0.00     0.053 A 
HETATM   12  C8  UNL     1      25.803 -30.045  22.934  1.00  0.00     0.019 A 
HETATM   13  C12 UNL     1      25.705 -32.459  23.256  1.00  0.00     0.026 A 
HETATM   14  C9  UNL     1      24.630 -30.088  22.183  1.00  0.00     0.001 A 
HETATM   15  C10 UNL     1      24.009 -31.311  21.942  1.00  0.00     0.002 A 
HETATM   16  C11 UNL     1      24.553 -32.490  22.462  1.00  0.00     0.024 A 
HETATM   17  N2  UNL     1      26.279 -33.652  23.706  1.00  0.00    -0.266 NA
HETATM   18  C13 UNL     1      27.132 -33.557  24.878  1.00  0.00     0.199 C 
HETATM   19  H14 UNL     1      25.590 -34.393  23.798  1.00  0.00     0.130 HD
BRANCH  18  20
HETATM   20  C14 UNL     1      26.304 -33.680  26.153  1.00  0.00    -0.018 A 
HETATM   21  C15 UNL     1      25.227 -34.606  26.183  1.00  0.00     0.013 A 
HETATM   22  C16 UNL     1      24.419 -34.749  27.315  1.00  0.00     0.040 A 
HETATM   23  C17 UNL     1      24.698 -33.954  28.404  1.00  0.00     0.105 A 
HETATM   24  C18 UNL     1      25.731 -33.048  28.390  1.00  0.00     0.105 A 
HETATM   25  O5  UNL     1      24.022 -33.954  29.583  1.00  0.00    -0.323 OA
HETATM   26  C19 UNL     1      26.545 -32.885  27.289  1.00  0.00     0.050 A 
HETATM   27  O4  UNL     1      25.835 -32.363  29.561  1.00  0.00    -0.323 OA
HETATM   28  C20 UNL     1      24.748 -32.942  30.312  1.00  0.00     0.352 A 
ENDBRANCH  18  20
ENDBRANCH   7   8
ENDBRANCH   6   7
ENDBRANCH   5   6
ENDBRANCH   3   5
ENDBRANCH   2   3
TORSDOF 6
ENDMDL
MODEL 5
REMARK VINA RESULT:    -6.871     43.949     45.875
REMARK INTER + INTRA:          -9.609
REMARK INTER:                  -8.837
REMARK INTRA:                  -0.772
REMARK UNBOUND:                -0.327
REMARK  6 active torsions:
REMARK  status: ('A' for Active; 'I' for Inactive)
REMARK    1  A    between atoms: O1_2  and  C2_3 
REMARK    2  A    between atoms: C2_3  and  C3_5 
REMARK    3  A    between atoms: C3_5  and  C4_6 
REMARK    4  A    between atoms: C4_6  and  C5_7 
REMARK    5  A    between atoms: C5_7  and  N1_8 
REMARK    6  A    between atoms: C13_18  and  C14_19 
ROOT
HETATM    1  C1  UNL     1      14.649 -30.072   1.201  1.00  0.00     0.213 C 
HETATM    2  O1  UNL     1      13.614 -30.516   2.078  1.00  0.00    -0.326 OA
ENDROOT
BRANCH   2   3
HETATM    3  C2  UNL     1      13.809 -31.765   2.579  1.00  0.00     0.258 C 
HETATM    4  O2  UNL     1      14.239 -32.723   1.951  1.00  0.00    -0.265 OA
BRANCH   3   5
HETATM    5  C3  UNL     1      13.387 -31.829   4.023  1.00  0.00     0.112 C 
BRANCH   5   6
HETATM    6  C4  UNL     1      14.018 -33.038   4.701  1.00  0.00     0.030 C 
BRANCH   6   7
HETATM    7  C5  UNL     1      14.132 -32.827   6.208  1.00  0.00     0.129 C 
BRANCH   7   8
HETATM    8  N1  UNL     1      13.455 -33.889   6.943  1.00  0.00    -0.327 N 
HETATM    9  C6  UNL     1      13.918 -35.190   6.828  1.00  0.00     0.257 C 
HETATM   10  O3  UNL     1      14.862 -35.510   6.110  1.00  0.00    -0.267 OA
HETATM   11  C7  UNL     1      13.227 -36.218   7.630  1.00  0.00     0.053 A 
HETATM   12  C8  UNL     1      13.533 -37.574   7.459  1.00  0.00     0.019 A 
HETATM   13  C12 UNL     1      12.289 -35.800   8.576  1.00  0.00     0.026 A 
HETATM   14  C9  UNL     1      12.909 -38.529   8.258  1.00  0.00     0.001 A 
HETATM   15  C10 UNL     1      12.000 -38.126   9.234  1.00  0.00     0.002 A 
HETATM   16  C11 UNL     1      11.705 -36.768   9.401  1.00  0.00     0.024 A 
HETATM   17  N2  UNL     1      12.042 -34.443   8.804  1.00  0.00    -0.266 NA
HETATM   18  C13 UNL     1      12.253 -33.550   7.677  1.00  0.00     0.199 C 
HETATM   19  H14 UNL     1      11.141 -34.290   9.245  1.00  0.00     0.130 HD
BRANCH  18  20
HETATM   20  C14 UNL     1      10.990 -33.456   6.828  1.00  0.00    -0.018 A 
HETATM   21  C15 UNL     1       9.913 -32.651   7.288  1.00  0.00     0.013 A 
HETATM   22  C16 UNL     1       8.722 -32.543   6.564  1.00  0.00     0.040 A 
HETATM   23  C17 UNL     1       8.622 -33.250   5.387  1.00  0.00     0.105 A 
HETATM   24  C18 UNL     1       9.650 -34.039   4.931  1.00  0.00     0.105 A 
HETATM   25  O5  UNL     1       7.545 -33.267   4.558  1.00  0.00    -0.323 OA
HETATM   26  C19 UNL     1      10.837 -34.165   5.622  1.00  0.00     0.050 A 
HETATM   27  O4  UNL     1       9.349 -34.652   3.754  1.00  0.00    -0.323 OA
HETATM   28  C20 UNL     1       8.013 -34.159   3.524  1.00  0.00     0.352 A 
ENDBRANCH  18  20
ENDBRANCH   7   8
ENDBRANCH   6   7
ENDBRANCH   5   6
ENDBRANCH   3   5
ENDBRANCH   2   3
TORSDOF 6
ENDMDL
MODEL 6
REMARK VINA RESULT:    -6.821     16.610     18.181
REMARK INTER + INTRA:          -9.541
REMARK INTER:                  -8.686
REMARK INTRA:                  -0.855
REMARK UNBOUND:                -0.327
REMARK  6 active torsions:
REMARK  status: ('A' for Active; 'I' for Inactive)
REMARK    1  A    between atoms: O1_2  and  C2_3 
REMARK    2  A    between atoms: C2_3  and  C3_5 
REMARK    3  A    between atoms: C3_5  and  C4_6 
REMARK    4  A    between atoms: C4_6  and  C5_7 
REMARK    5  A    between atoms: C5_7  and  N1_8 
REMARK    6  A    between atoms: C13_18  and  C14_19 
ROOT
HETATM    1  C1  UNL     1      10.899  -8.869  53.509  1.00  0.00     0.213 C 
HETATM    2  O1  UNL     1      12.237  -8.374  53.519  1.00  0.00    -0.326 OA
ENDROOT
BRANCH   2   3
HETATM    3  C2  UNL     1      12.425  -7.301  54.334  1.00  0.00     0.258 C 
HETATM    4  O2  UNL     1      12.958  -7.330  55.434  1.00  0.00    -0.265 OA
BRANCH   3   5
HETATM    5  C3  UNL     1      11.850  -6.057  53.713  1.00  0.00     0.112 C 
BRANCH   5   6
HETATM    6  C4  UNL     1      12.909  -4.965  53.647  1.00  0.00     0.030 C 
BRANCH   6   7
HETATM    7  C5  UNL     1      12.749  -3.972  54.795  1.00  0.00     0.129 C 
BRANCH   7   8
HETATM    8  N1  UNL     1      12.572  -2.612  54.297  1.00  0.00    -0.327 N 
HETATM    9  C6  UNL     1      13.210  -1.568  54.947  1.00  0.00     0.257 C 
HETATM   10  O3  UNL     1      13.902  -1.719  55.950  1.00  0.00    -0.267 OA
HETATM   11  C7  UNL     1      13.035  -0.219  54.374  1.00  0.00     0.053 A 
HETATM   12  C8  UNL     1      13.519   0.907  55.051  1.00  0.00     0.019 A 
HETATM   13  C12 UNL     1      12.405  -0.103  53.133  1.00  0.00     0.026 A 
HETATM   14  C9  UNL     1      13.392   2.168  54.474  1.00  0.00     0.001 A 
HETATM   15  C10 UNL     1      12.801   2.297  53.218  1.00  0.00     0.002 A 
HETATM   16  C11 UNL     1      12.326   1.166  52.547  1.00  0.00     0.024 A 
HETATM   17  N2  UNL     1      11.994  -1.233  52.419  1.00  0.00    -0.266 NA
HETATM   18  C13 UNL     1      11.642  -2.402  53.207  1.00  0.00     0.199 C 
HETATM   19  H14 UNL     1      11.280  -1.009  51.733  1.00  0.00     0.130 HD
BRANCH  18  20
HETATM   20  C14 UNL     1      10.175  -2.347  53.618  1.00  0.00    -0.018 A 
HETATM   21  C15 UNL     1       9.733  -1.273  54.436  1.00  0.00     0.013 A 
HETATM   22  C16 UNL     1       8.404  -1.180  54.863  1.00  0.00     0.040 A 
HETATM   23  C17 UNL     1       7.535  -2.171  54.468  1.00  0.00     0.105 A 
HETATM   24  C18 UNL     1       7.947  -3.221  53.683  1.00  0.00     0.105 A 
HETATM   25  O5  UNL     1       6.216  -2.246  54.787  1.00  0.00    -0.323 OA
HETATM   26  C19 UNL     1       9.250  -3.340  53.246  1.00  0.00     0.050 A 
HETATM   27  O4  UNL     1       6.936  -4.089  53.408  1.00  0.00    -0.323 OA
HETATM   28  C20 UNL     1       5.842  -3.466  54.111  1.00  0.00     0.352 A 
ENDBRANCH  18  20
ENDBRANCH   7   8
ENDBRANCH   6   7
ENDBRANCH   5   6
ENDBRANCH   3   5
ENDBRANCH   2   3
TORSDOF 6
ENDMDL
MODEL 7
REMARK VINA RESULT:    -6.783     32.182     35.748
REMARK INTER + INTRA:          -9.489
REMARK INTER:                  -8.156
REMARK INTRA:                  -1.333
REMARK UNBOUND:                -0.327
REMARK  6 active torsions:
REMARK  status: ('A' for Active; 'I' for Inactive)
REMARK    1  A    between atoms: O1_2  and  C2_3 
REMARK    2  A    between atoms: C2_3  and  C3_5 
REMARK    3  A    between atoms: C3_5  and  C4_6 
REMARK    4  A    between atoms: C4_6  and  C5_7 
REMARK    5  A    between atoms: C5_7  and  N1_8 
REMARK    6  A    between atoms: C13_18  and  C14_19 
ROOT
HETATM    1  C1  UNL     1       7.092  13.548   7.918  1.00  0.00     0.213 C 
HETATM    2  O1  UNL     1       8.512  13.673   7.981  1.00  0.00    -0.326 OA
ENDROOT
BRANCH   2   3
HETATM    3  C2  UNL     1       9.157  12.514   8.281  1.00  0.00     0.258 C 
HETATM    4  O2  UNL     1       9.707  12.262   9.345  1.00  0.00    -0.265 OA
BRANCH   3   5
HETATM    5  C3  UNL     1       9.140  11.577   7.103  1.00  0.00     0.112 C 
BRANCH   5   6
HETATM    6  C4  UNL     1      10.559  11.327   6.610  1.00  0.00     0.030 C 
BRANCH   6   7
HETATM    7  C5  UNL     1      10.810  12.025   5.276  1.00  0.00     0.129 C 
BRANCH   7   8
HETATM    8  N1  UNL     1      10.733  13.475   5.415  1.00  0.00    -0.327 N 
HETATM    9  C6  UNL     1       9.869  14.186   4.599  1.00  0.00     0.257 C 
HETATM   10  O3  UNL     1       9.174  13.663   3.732  1.00  0.00    -0.267 OA
HETATM   11  C7  UNL     1       9.796  15.644   4.814  1.00  0.00     0.053 A 
HETATM   12  C8  UNL     1       9.065  16.455   3.937  1.00  0.00     0.019 A 
HETATM   13  C12 UNL     1      10.448  16.184   5.924  1.00  0.00     0.026 A 
HETATM   14  C9  UNL     1       8.964  17.822   4.181  1.00  0.00     0.001 A 
HETATM   15  C10 UNL     1       9.575  18.370   5.307  1.00  0.00     0.002 A 
HETATM   16  C11 UNL     1      10.299  17.552   6.181  1.00  0.00     0.024 A 
HETATM   17  N2  UNL     1      11.111  15.366   6.845  1.00  0.00    -0.266 NA
HETATM   18  C13 UNL     1      11.653  14.120   6.330  1.00  0.00     0.199 C 
HETATM   19  H14 UNL     1      11.797  15.883   7.386  1.00  0.00     0.130 HD
BRANCH  18  20
HETATM   20  C14 UNL     1      13.058  14.337   5.779  1.00  0.00    -0.018 A 
HETATM   21  C15 UNL     1      14.172  13.982   6.585  1.00  0.00     0.013 A 
HETATM   22  C16 UNL     1      15.485  14.178   6.143  1.00  0.00     0.040 A 
HETATM   23  C17 UNL     1      15.663  14.734   4.897  1.00  0.00     0.105 A 
HETATM   24  C18 UNL     1      14.597  15.090   4.107  1.00  0.00     0.105 A 
HETATM   25  O5  UNL     1      16.859  14.998   4.307  1.00  0.00    -0.323 OA
HETATM   26  C19 UNL     1      13.292  14.909   4.515  1.00  0.00     0.050 A 
HETATM   27  O4  UNL     1      14.989  15.622   2.918  1.00  0.00    -0.323 OA
HETATM   28  C20 UNL     1      16.424  15.562   3.052  1.00  0.00     0.352 A 
ENDBRANCH  18  20
ENDBRANCH   7   8
ENDBRANCH   6   7
ENDBRANCH   5   6
ENDBRANCH   3   5
ENDBRANCH   2   3
TORSDOF 6
ENDMDL
MODEL 8
REMARK VINA RESULT:    -6.741     41.490     44.290
REMARK INTER + INTRA:          -9.433
REMARK INTER:                  -8.608
REMARK INTRA:                  -0.825
REMARK UNBOUND:                -0.327
REMARK  6 active torsions:
REMARK  status: ('A' for Active; 'I' for Inactive)
REMARK    1  A    between atoms: O1_2  and  C2_3 
REMARK    2  A    between atoms: C2_3  and  C3_5 
REMARK    3  A    between atoms: C3_5  and  C4_6 
REMARK    4  A    between atoms: C4_6  and  C5_7 
REMARK    5  A    between atoms: C5_7  and  N1_8 
REMARK    6  A    between atoms: C13_18  and  C14_19 
ROOT
HETATM    1  C1  UNL     1      12.138 -27.008   7.608  1.00  0.00     0.213 C 
HETATM    2  O1  UNL     1      13.087 -28.032   7.315  1.00  0.00    -0.326 OA
ENDROOT
BRANCH   2   3
HETATM    3  C2  UNL     1      12.866 -28.673   6.136  1.00  0.00     0.258 C 
HETATM    4  O2  UNL     1      11.990 -28.393   5.329  1.00  0.00    -0.265 OA
BRANCH   3   5
HETATM    5  C3  UNL     1      13.832 -29.814   5.963  1.00  0.00     0.112 C 
BRANCH   5   6
HETATM    6  C4  UNL     1      13.403 -30.999   6.818  1.00  0.00     0.030 C 
BRANCH   6   7
HETATM    7  C5  UNL     1      13.733 -32.322   6.131  1.00  0.00     0.129 C 
BRANCH   7   8
HETATM    8  N1  UNL     1      13.223 -33.455   6.894  1.00  0.00    -0.327 N 
HETATM    9  C6  UNL     1      13.678 -34.729   6.596  1.00  0.00     0.257 C 
HETATM   10  O3  UNL     1      14.477 -34.966   5.693  1.00  0.00    -0.267 OA
HETATM   11  C7  UNL     1      13.166 -35.833   7.430  1.00  0.00     0.053 A 
HETATM   12  C8  UNL     1      13.457 -37.164   7.101  1.00  0.00     0.019 A 
HETATM   13  C12 UNL     1      12.413 -35.515   8.562  1.00  0.00     0.026 A 
HETATM   14  C9  UNL     1      13.009 -38.193   7.926  1.00  0.00     0.001 A 
HETATM   15  C10 UNL     1      12.291 -37.889   9.081  1.00  0.00     0.002 A 
HETATM   16  C11 UNL     1      12.010 -36.558   9.404  1.00  0.00     0.024 A 
HETATM   17  N2  UNL     1      12.191 -34.186   8.935  1.00  0.00    -0.266 NA
HETATM   18  C13 UNL     1      12.173 -33.207   7.861  1.00  0.00     0.199 C 
HETATM   19  H14 UNL     1      11.385 -34.093   9.546  1.00  0.00     0.130 HD
BRANCH  18  20
HETATM   20  C14 UNL     1      10.773 -33.091   7.269  1.00  0.00    -0.018 A 
HETATM   21  C15 UNL     1      10.582 -33.392   5.894  1.00  0.00     0.013 A 
HETATM   22  C16 UNL     1       9.325 -33.282   5.290  1.00  0.00     0.040 A 
HETATM   23  C17 UNL     1       8.274 -32.864   6.074  1.00  0.00     0.105 A 
HETATM   24  C18 UNL     1       8.441 -32.562   7.403  1.00  0.00     0.105 A 
HETATM   25  O5  UNL     1       6.990 -32.699   5.660  1.00  0.00    -0.323 OA
HETATM   26  C19 UNL     1       9.667 -32.660   8.027  1.00  0.00     0.050 A 
HETATM   27  O4  UNL     1       7.281 -32.168   7.994  1.00  0.00    -0.323 OA
HETATM   28  C20 UNL     1       6.365 -32.256   6.883  1.00  0.00     0.352 A 
ENDBRANCH  18  20
ENDBRANCH   7   8
ENDBRANCH   6   7
ENDBRANCH   5   6
ENDBRANCH   3   5
ENDBRANCH   2   3
TORSDOF 6
ENDMDL
MODEL 9
REMARK VINA RESULT:    -6.657     37.596     39.314
REMARK INTER + INTRA:          -9.319
REMARK INTER:                  -8.597
REMARK INTRA:                  -0.722
REMARK UNBOUND:                -0.327
REMARK  6 active torsions:
REMARK  status: ('A' for Active; 'I' for Inactive)
REMARK    1  A    between atoms: O1_2  and  C2_3 
REMARK    2  A    between atoms: C2_3  and  C3_5 
REMARK    3  A    between atoms: C3_5  and  C4_6 
REMARK    4  A    between atoms: C4_6  and  C5_7 
REMARK    5  A    between atoms: C5_7  and  N1_8 
REMARK    6  A    between atoms: C13_18  and  C14_19 
ROOT
HETATM    1  C1  UNL     1      34.799 -35.040  24.570  1.00  0.00     0.213 C 
HETATM    2  O1  UNL     1      33.776 -34.385  23.822  1.00  0.00    -0.326 OA
ENDROOT
BRANCH   2   3
HETATM    3  C2  UNL     1      32.538 -34.472  24.380  1.00  0.00     0.258 C 
HETATM    4  O2  UNL     1      32.062 -35.473  24.897  1.00  0.00    -0.265 OA
BRANCH   3   5
HETATM    5  C3  UNL     1      31.802 -33.166  24.244  1.00  0.00     0.112 C 
BRANCH   5   6
HETATM    6  C4  UNL     1      30.319 -33.368  24.523  1.00  0.00     0.030 C 
BRANCH   6   7
HETATM    7  C5  UNL     1      29.680 -32.090  25.060  1.00  0.00     0.129 C 
BRANCH   7   8
HETATM    8  N1  UNL     1      28.257 -32.038  24.747  1.00  0.00    -0.327 N 
HETATM    9  C6  UNL     1      27.762 -30.959  24.034  1.00  0.00     0.257 C 
HETATM   10  O3  UNL     1      28.457 -30.014  23.669  1.00  0.00    -0.267 OA
HETATM   11  C7  UNL     1      26.324 -30.980  23.703  1.00  0.00     0.053 A 
HETATM   12  C8  UNL     1      25.714 -29.862  23.118  1.00  0.00     0.019 A 
HETATM   13  C12 UNL     1      25.602 -32.147  23.961  1.00  0.00     0.026 A 
HETATM   14  C9  UNL     1      24.368 -29.916  22.766  1.00  0.00     0.001 A 
HETATM   15  C10 UNL     1      23.643 -31.086  22.980  1.00  0.00     0.002 A 
HETATM   16  C11 UNL     1      24.262 -32.199  23.559  1.00  0.00     0.024 A 
HETATM   17  N2  UNL     1      26.227 -33.289  24.469  1.00  0.00    -0.266 NA
HETATM   18  C13 UNL     1      27.402 -33.070  25.296  1.00  0.00     0.199 C 
HETATM   19  H14 UNL     1      25.564 -33.919  24.911  1.00  0.00     0.130 HD
BRANCH  18  20
HETATM   20  C14 UNL     1      26.997 -32.859  26.751  1.00  0.00    -0.018 A 
HETATM   21  C15 UNL     1      27.368 -31.649  27.397  1.00  0.00     0.013 A 
HETATM   22  C16 UNL     1      27.044 -31.408  28.736  1.00  0.00     0.040 A 
HETATM   23  C17 UNL     1      26.357 -32.390  29.414  1.00  0.00     0.105 A 
HETATM   24  C18 UNL     1      25.998 -33.569  28.808  1.00  0.00     0.105 A 
HETATM   25  O5  UNL     1      25.963 -32.331  30.714  1.00  0.00    -0.323 OA
HETATM   26  C19 UNL     1      26.302 -33.835  27.489  1.00  0.00     0.050 A 
HETATM   27  O4  UNL     1      25.329 -34.401  29.651  1.00  0.00    -0.323 OA
HETATM   28  C20 UNL     1      25.312 -33.611  30.857  1.00  0.00     0.352 A 
ENDBRANCH  18  20
ENDBRANCH   7   8
ENDBRANCH   6   7
ENDBRANCH   5   6
ENDBRANCH   3   5
ENDBRANCH   2   3
TORSDOF 6
ENDMDL
MODEL 10
REMARK VINA RESULT:    -6.596     37.576     39.243
REMARK INTER + INTRA:          -9.237
REMARK INTER:                  -8.172
REMARK INTRA:                  -1.064
REMARK UNBOUND:                -0.327
REMARK  6 active torsions:
REMARK  status: ('A' for Active; 'I' for Inactive)
REMARK    1  A    between atoms: O1_2  and  C2_3 
REMARK    2  A    between atoms: C2_3  and  C3_5 
REMARK    3  A    between atoms: C3_5  and  C4_6 
REMARK    4  A    between atoms: C4_6  and  C5_7 
REMARK    5  A    between atoms: C5_7  and  N1_8 
REMARK    6  A    between atoms: C13_18  and  C14_19 
ROOT
HETATM    1  C1  UNL     1      35.700 -33.105  23.632  1.00  0.00     0.213 C 
HETATM    2  O1  UNL     1      34.483 -32.361  23.688  1.00  0.00    -0.326 OA
ENDROOT
BRANCH   2   3
HETATM    3  C2  UNL     1      33.379 -33.078  23.348  1.00  0.00     0.258 C 
HETATM    4  O2  UNL     1      33.226 -33.696  22.303  1.00  0.00    -0.265 OA
BRANCH   3   5
HETATM    5  C3  UNL     1      32.333 -32.984  24.426  1.00  0.00     0.112 C 
BRANCH   5   6
HETATM    6  C4  UNL     1      30.944 -33.159  23.828  1.00  0.00     0.030 C 
BRANCH   6   7
HETATM    7  C5  UNL     1      30.322 -31.810  23.477  1.00  0.00     0.129 C 
BRANCH   7   8
HETATM    8  N1  UNL     1      28.891 -31.797  23.762  1.00  0.00    -0.327 N 
HETATM    9  C6  UNL     1      28.040 -31.112  22.910  1.00  0.00     0.257 C 
HETATM   10  O3  UNL     1      28.429 -30.481  21.930  1.00  0.00    -0.267 OA
HETATM   11  C7  UNL     1      26.598 -31.172  23.218  1.00  0.00     0.053 A 
HETATM   12  C8  UNL     1      25.687 -30.388  22.499  1.00  0.00     0.019 A 
HETATM   13  C12 UNL     1      26.169 -32.046  24.218  1.00  0.00     0.026 A 
HETATM   14  C9  UNL     1      24.324 -30.492  22.767  1.00  0.00     0.001 A 
HETATM   15  C10 UNL     1      23.877 -31.389  23.734  1.00  0.00     0.002 A 
HETATM   16  C11 UNL     1      24.794 -32.173  24.443  1.00  0.00     0.024 A 
HETATM   17  N2  UNL     1      27.068 -32.888  24.880  1.00  0.00    -0.266 NA
HETATM   18  C13 UNL     1      28.437 -32.412  24.992  1.00  0.00     0.199 C 
HETATM   19  H14 UNL     1      26.704 -33.206  25.773  1.00  0.00     0.130 HD
BRANCH  18  20
HETATM   20  C14 UNL     1      28.601 -31.549  26.238  1.00  0.00    -0.018 A 
HETATM   21  C15 UNL     1      28.469 -32.158  27.515  1.00  0.00     0.013 A 
HETATM   22  C16 UNL     1      28.588 -31.414  28.694  1.00  0.00     0.040 A 
HETATM   23  C17 UNL     1      28.831 -30.064  28.576  1.00  0.00     0.105 A 
HETATM   24  C18 UNL     1      28.954 -29.458  27.349  1.00  0.00     0.105 A 
HETATM   25  O5  UNL     1      28.973 -29.189  29.606  1.00  0.00    -0.323 OA
HETATM   26  C19 UNL     1      28.843 -30.164  26.170  1.00  0.00     0.050 A 
HETATM   27  O4  UNL     1      29.190 -28.122  27.454  1.00  0.00    -0.323 OA
HETATM   28  C20 UNL     1      29.200 -27.958  28.887  1.00  0.00     0.352 A 
ENDBRANCH  18  20
ENDBRANCH   7   8
ENDBRANCH   6   7
ENDBRANCH   5   6
ENDBRANCH   3   5
ENDBRANCH   2   3
TORSDOF 6
ENDMDL
