MODEL 1
REMARK VINA RESULT:    -8.086      0.000      0.000
REMARK INTER + INTRA:          -9.942
REMARK INTER:                  -9.505
REMARK INTRA:                  -0.438
REMARK UNBOUND:                -0.438
REMARK  3 active torsions:
REMARK  status: ('A' for Active; 'I' for Inactive)
REMARK    1  A    between atoms: O1_2  and  C2_3 
REMARK    2  A    between atoms: C5_6  and  N1_7 
REMARK    3  A    between atoms: N2_10  and  C8_11 
ROOT
HETATM    1  C1  UNL     1       8.183 -39.896  17.273  1.00  0.00     0.210 C 
HETATM    2  O1  UNL     1       8.352 -38.501  17.059  1.00  0.00    -0.356 OA
ENDROOT
BRANCH   2   3
HETATM    3  C2  UNL     1       8.879 -38.120  15.857  1.00  0.00     0.068 A 
HETATM    4  C3  UNL     1       9.489 -38.951  14.926  1.00  0.00     0.039 A 
HETATM    5  C4  UNL     1       9.989 -38.420  13.724  1.00  0.00     0.032 A 
HETATM    6  C5  UNL     1       9.892 -37.055  13.410  1.00  0.00     0.030 A 
HETATM    7  C17 UNL     1       9.276 -36.242  14.372  1.00  0.00     0.032 A 
HETATM    8  C18 UNL     1       8.775 -36.762  15.573  1.00  0.00     0.039 A 
BRANCH   6   9
HETATM    9  N1  UNL     1      10.390 -36.530  12.228  1.00  0.00    -0.378 N 
HETATM   10  C6  UNL     1      10.841 -35.136  12.124  1.00  0.00     0.143 C 
HETATM   11  C7  UNL     1      10.821 -34.642  10.661  1.00  0.00     0.161 C 
HETATM   12  N2  UNL     1      11.608 -35.493   9.755  1.00  0.00    -0.213 N 
HETATM   13  C15 UNL     1      11.898 -36.851  10.254  1.00  0.00     0.161 C 
HETATM   14  C16 UNL     1      10.741 -37.417  11.104  1.00  0.00     0.143 C 
BRANCH  12  15
HETATM   15  C8  UNL     1      12.263 -35.025   8.635  1.00  0.00     0.705 A 
HETATM   16  N3  UNL     1      12.128 -33.796   8.236  1.00  0.00    -0.069 NA
HETATM   17  C9  UNL     1      12.791 -33.376   7.106  1.00  0.00     0.067 A 
HETATM   18  C10 UNL     1      13.617 -34.151   6.383  1.00  0.00     0.045 A 
HETATM   19  C14 UNL     1      12.519 -31.930   6.748  1.00  0.00     0.071 C 
HETATM   20  C11 UNL     1      13.818 -35.530   6.875  1.00  0.00     0.268 A 
HETATM   21  C12 UNL     1      14.369 -33.800   5.138  1.00  0.00     0.120 C 
HETATM   22  O2  UNL     1      14.612 -36.304   6.351  1.00  0.00    -0.267 OA
HETATM   23  N4  UNL     1      13.076 -35.889   7.958  1.00  0.00    -0.154 N 
HETATM   24  H10 UNL     1      13.251 -36.811   8.316  1.00  0.00     0.187 HD
HETATM   25  S1  UNL     1      13.807 -32.268   4.342  1.00  0.00    -0.164 SA
HETATM   26  C13 UNL     1      13.560 -31.282   5.841  1.00  0.00     0.080 C 
ENDBRANCH  12  15
ENDBRANCH   6   9
ENDBRANCH   2   3
TORSDOF 3
ENDMDL
MODEL 2
REMARK VINA RESULT:    -7.382      1.551      2.331
REMARK INTER + INTRA:          -9.114
REMARK INTER:                  -8.707
REMARK INTRA:                  -0.407
REMARK UNBOUND:                -0.438
REMARK  3 active torsions:
REMARK  status: ('A' for Active; 'I' for Inactive)
REMARK    1  A    between atoms: O1_2  and  C2_3 
REMARK    2  A    between atoms: C5_6  and  N1_7 
REMARK    3  A    between atoms: N2_10  and  C8_11 
ROOT
HETATM    1  C1  UNL     1       8.164 -40.055  17.420  1.00  0.00     0.210 C 
HETATM    2  O1  UNL     1       8.279 -38.638  17.412  1.00  0.00    -0.356 OA
ENDROOT
BRANCH   2   3
HETATM    3  C2  UNL     1       8.665 -38.058  16.237  1.00  0.00     0.068 A 
HETATM    4  C3  UNL     1       8.542 -36.715  15.902  1.00  0.00     0.039 A 
HETATM    5  C4  UNL     1       8.985 -36.255  14.650  1.00  0.00     0.032 A 
HETATM    6  C5  UNL     1       9.567 -37.108  13.700  1.00  0.00     0.030 A 
HETATM    7  C17 UNL     1       9.673 -38.458  14.065  1.00  0.00     0.032 A 
HETATM    8  C18 UNL     1       9.233 -38.927  15.311  1.00  0.00     0.039 A 
BRANCH   6   9
HETATM    9  N1  UNL     1       9.999 -36.657  12.463  1.00  0.00    -0.378 N 
HETATM   10  C6  UNL     1       9.149 -35.829  11.596  1.00  0.00     0.143 C 
HETATM   11  C7  UNL     1       9.594 -35.917  10.119  1.00  0.00     0.161 C 
HETATM   12  N2  UNL     1      11.008 -35.562   9.921  1.00  0.00    -0.213 N 
HETATM   13  C15 UNL     1      11.851 -35.621  11.131  1.00  0.00     0.161 C 
HETATM   14  C16 UNL     1      11.421 -36.756  12.085  1.00  0.00     0.143 C 
BRANCH  12  15
HETATM   15  C8  UNL     1      11.500 -34.971   8.778  1.00  0.00     0.705 A 
HETATM   16  N3  UNL     1      12.474 -35.506   8.104  1.00  0.00    -0.069 NA
HETATM   17  C9  UNL     1      12.942 -34.875   6.975  1.00  0.00     0.067 A 
HETATM   18  C10 UNL     1      12.432 -33.733   6.482  1.00  0.00     0.045 A 
HETATM   19  C14 UNL     1      14.093 -35.599   6.310  1.00  0.00     0.071 C 
HETATM   20  C11 UNL     1      11.283 -33.160   7.214  1.00  0.00     0.268 A 
HETATM   21  C12 UNL     1      12.873 -32.961   5.278  1.00  0.00     0.120 C 
HETATM   22  O2  UNL     1      10.679 -32.170   6.815  1.00  0.00    -0.267 OA
HETATM   23  N4  UNL     1      10.924 -33.806   8.357  1.00  0.00    -0.154 N 
HETATM   24  H10 UNL     1      10.115 -33.440   8.824  1.00  0.00     0.187 HD
HETATM   25  S1  UNL     1      14.502 -33.451   4.643  1.00  0.00    -0.164 SA
HETATM   26  C13 UNL     1      14.322 -35.242   4.845  1.00  0.00     0.080 C 
ENDBRANCH  12  15
ENDBRANCH   6   9
ENDBRANCH   2   3
TORSDOF 3
ENDMDL
MODEL 3
REMARK VINA RESULT:    -6.955      1.829      2.510
REMARK INTER + INTRA:          -8.612
REMARK INTER:                  -8.188
REMARK INTRA:                  -0.424
REMARK UNBOUND:                -0.438
REMARK  3 active torsions:
REMARK  status: ('A' for Active; 'I' for Inactive)
REMARK    1  A    between atoms: O1_2  and  C2_3 
REMARK    2  A    between atoms: C5_6  and  N1_7 
REMARK    3  A    between atoms: N2_10  and  C8_11 
ROOT
HETATM    1  C1  UNL     1       8.175 -40.123  17.136  1.00  0.00     0.210 C 
HETATM    2  O1  UNL     1       8.332 -38.713  17.230  1.00  0.00    -0.356 OA
ENDROOT
BRANCH   2   3
HETATM    3  C2  UNL     1       8.711 -38.058  16.093  1.00  0.00     0.068 A 
HETATM    4  C3  UNL     1       8.593 -36.695  15.849  1.00  0.00     0.039 A 
HETATM    5  C4  UNL     1       9.026 -36.155  14.626  1.00  0.00     0.032 A 
HETATM    6  C5  UNL     1       9.595 -36.946  13.616  1.00  0.00     0.030 A 
HETATM    7  C17 UNL     1       9.696 -38.318  13.889  1.00  0.00     0.032 A 
HETATM    8  C18 UNL     1       9.265 -38.866  15.105  1.00  0.00     0.039 A 
BRANCH   6   9
HETATM    9  N1  UNL     1      10.018 -36.415  12.408  1.00  0.00    -0.378 N 
HETATM   10  C6  UNL     1       9.856 -37.138  11.140  1.00  0.00     0.143 C 
HETATM   11  C7  UNL     1      10.852 -36.636  10.071  1.00  0.00     0.161 C 
HETATM   12  N2  UNL     1      10.762 -35.186   9.836  1.00  0.00    -0.213 N 
HETATM   13  C15 UNL     1      10.107 -34.411  10.908  1.00  0.00     0.161 C 
HETATM   14  C16 UNL     1      10.397 -34.993  12.307  1.00  0.00     0.143 C 
BRANCH  12  15
HETATM   15  C8  UNL     1      11.020 -34.586   8.623  1.00  0.00     0.705 A 
HETATM   16  N3  UNL     1      10.225 -34.740   7.608  1.00  0.00    -0.069 NA
HETATM   17  C9  UNL     1      10.527 -34.132   6.411  1.00  0.00     0.067 A 
HETATM   18  C10 UNL     1      11.596 -33.341   6.217  1.00  0.00     0.045 A 
HETATM   19  C14 UNL     1       9.526 -34.422   5.314  1.00  0.00     0.071 C 
HETATM   20  C11 UNL     1      12.465 -33.114   7.390  1.00  0.00     0.268 A 
HETATM   21  C12 UNL     1      12.023 -32.648   4.961  1.00  0.00     0.120 C 
HETATM   22  O2  UNL     1      13.420 -32.345   7.360  1.00  0.00    -0.267 OA
HETATM   23  N4  UNL     1      12.136 -33.804   8.516  1.00  0.00    -0.154 N 
HETATM   24  H10 UNL     1      12.702 -33.611   9.323  1.00  0.00     0.187 HD
HETATM   25  S1  UNL     1      11.188 -33.249   3.465  1.00  0.00    -0.164 SA
HETATM   26  C13 UNL     1       9.525 -33.427   4.159  1.00  0.00     0.080 C 
ENDBRANCH  12  15
ENDBRANCH   6   9
ENDBRANCH   2   3
TORSDOF 3
ENDMDL
MODEL 4
REMARK VINA RESULT:    -6.860     42.441     44.203
REMARK INTER + INTRA:          -8.500
REMARK INTER:                  -8.087
REMARK INTRA:                  -0.414
REMARK UNBOUND:                -0.438
REMARK  3 active torsions:
REMARK  status: ('A' for Active; 'I' for Inactive)
REMARK    1  A    between atoms: O1_2  and  C2_3 
REMARK    2  A    between atoms: C5_6  and  N1_7 
REMARK    3  A    between atoms: N2_10  and  C8_11 
ROOT
HETATM    1  C1  UNL     1       7.076   2.053  30.377  1.00  0.00     0.210 C 
HETATM    2  O1  UNL     1       6.523   2.540  31.593  1.00  0.00    -0.356 OA
ENDROOT
BRANCH   2   3
HETATM    3  C2  UNL     1       6.716   1.775  32.708  1.00  0.00     0.068 A 
HETATM    4  C3  UNL     1       6.881   2.239  34.007  1.00  0.00     0.039 A 
HETATM    5  C4  UNL     1       7.073   1.333  35.064  1.00  0.00     0.032 A 
HETATM    6  C5  UNL     1       7.099  -0.056  34.865  1.00  0.00     0.030 A 
HETATM    7  C17 UNL     1       6.936  -0.494  33.542  1.00  0.00     0.032 A 
HETATM    8  C18 UNL     1       6.746   0.403  32.482  1.00  0.00     0.039 A 
BRANCH   6   9
HETATM    9  N1  UNL     1       7.294  -0.951  35.905  1.00  0.00    -0.378 N 
HETATM   10  C6  UNL     1       8.307  -2.013  35.840  1.00  0.00     0.143 C 
HETATM   11  C7  UNL     1       7.977  -3.169  36.810  1.00  0.00     0.161 C 
HETATM   12  N2  UNL     1       7.807  -2.723  38.202  1.00  0.00    -0.213 N 
HETATM   13  C15 UNL     1       7.538  -1.282  38.376  1.00  0.00     0.161 C 
HETATM   14  C16 UNL     1       6.685  -0.707  37.226  1.00  0.00     0.143 C 
BRANCH  12  15
HETATM   15  C8  UNL     1       8.118  -3.495  39.301  1.00  0.00     0.705 A 
HETATM   16  N3  UNL     1       7.585  -4.667  39.477  1.00  0.00    -0.069 NA
HETATM   17  C9  UNL     1       7.914  -5.398  40.595  1.00  0.00     0.067 A 
HETATM   18  C10 UNL     1       8.795  -4.996  41.527  1.00  0.00     0.045 A 
HETATM   19  C14 UNL     1       7.199  -6.729  40.679  1.00  0.00     0.071 C 
HETATM   20  C11 UNL     1       9.448  -3.691  41.292  1.00  0.00     0.268 A 
HETATM   21  C12 UNL     1       9.211  -5.703  42.779  1.00  0.00     0.120 C 
HETATM   22  O2  UNL     1      10.330  -3.258  42.025  1.00  0.00    -0.267 OA
HETATM   23  N4  UNL     1       9.018  -3.000  40.201  1.00  0.00    -0.154 N 
HETATM   24  H10 UNL     1       9.497  -2.136  40.020  1.00  0.00     0.187 HD
HETATM   25  S1  UNL     1       8.125  -7.081  43.244  1.00  0.00    -0.164 SA
HETATM   26  C13 UNL     1       7.859  -7.762  41.587  1.00  0.00     0.080 C 
ENDBRANCH  12  15
ENDBRANCH   6   9
ENDBRANCH   2   3
TORSDOF 3
ENDMDL
MODEL 5
REMARK VINA RESULT:    -6.448     43.177     45.594
REMARK INTER + INTRA:          -8.017
REMARK INTER:                  -7.622
REMARK INTRA:                  -0.394
REMARK UNBOUND:                -0.438
REMARK  3 active torsions:
REMARK  status: ('A' for Active; 'I' for Inactive)
REMARK    1  A    between atoms: O1_2  and  C2_3 
REMARK    2  A    between atoms: C5_6  and  N1_7 
REMARK    3  A    between atoms: N2_10  and  C8_11 
ROOT
HETATM    1  C1  UNL     1      10.695   0.746  30.915  1.00  0.00     0.210 C 
HETATM    2  O1  UNL     1       9.831   1.739  31.454  1.00  0.00    -0.356 OA
ENDROOT
BRANCH   2   3
HETATM    3  C2  UNL     1       9.065   1.376  32.524  1.00  0.00     0.068 A 
HETATM    4  C3  UNL     1       7.806   1.870  32.842  1.00  0.00     0.039 A 
HETATM    5  C4  UNL     1       7.129   1.403  33.981  1.00  0.00     0.032 A 
HETATM    6  C5  UNL     1       7.675   0.429  34.831  1.00  0.00     0.030 A 
HETATM    7  C17 UNL     1       8.949  -0.047  34.487  1.00  0.00     0.032 A 
HETATM    8  C18 UNL     1       9.633   0.414  33.354  1.00  0.00     0.039 A 
BRANCH   6   9
HETATM    9  N1  UNL     1       7.010  -0.028  35.958  1.00  0.00    -0.378 N 
HETATM   10  C6  UNL     1       6.333  -1.332  35.988  1.00  0.00     0.143 C 
HETATM   11  C7  UNL     1       5.245  -1.379  37.083  1.00  0.00     0.161 C 
HETATM   12  N2  UNL     1       5.760  -1.051  38.421  1.00  0.00    -0.213 N 
HETATM   13  C15 UNL     1       7.046  -0.326  38.445  1.00  0.00     0.161 C 
HETATM   14  C16 UNL     1       7.185   0.648  37.257  1.00  0.00     0.143 C 
BRANCH  12  15
HETATM   15  C8  UNL     1       5.255  -1.577  39.591  1.00  0.00     0.705 A 
HETATM   16  N3  UNL     1       3.985  -1.528  39.862  1.00  0.00    -0.069 NA
HETATM   17  C9  UNL     1       3.526  -2.055  41.047  1.00  0.00     0.067 A 
HETATM   18  C10 UNL     1       4.307  -2.665  41.955  1.00  0.00     0.045 A 
HETATM   19  C14 UNL     1       2.032  -1.903  41.238  1.00  0.00     0.071 C 
HETATM   20  C11 UNL     1       5.741  -2.776  41.615  1.00  0.00     0.268 A 
HETATM   21  C12 UNL     1       3.914  -3.255  43.273  1.00  0.00     0.120 C 
HETATM   22  O2  UNL     1       6.536  -3.385  42.322  1.00  0.00    -0.267 OA
HETATM   23  N4  UNL     1       6.126  -2.171  40.459  1.00  0.00    -0.154 N 
HETATM   24  H10 UNL     1       7.092  -2.290  40.210  1.00  0.00     0.187 HD
HETATM   25  S1  UNL     1       2.262  -2.760  43.840  1.00  0.00    -0.164 SA
HETATM   26  C13 UNL     1       1.407  -2.861  42.246  1.00  0.00     0.080 C 
ENDBRANCH  12  15
ENDBRANCH   6   9
ENDBRANCH   2   3
TORSDOF 3
ENDMDL
MODEL 6
REMARK VINA RESULT:    -6.411     43.393     45.832
REMARK INTER + INTRA:          -7.973
REMARK INTER:                  -7.557
REMARK INTRA:                  -0.416
REMARK UNBOUND:                -0.438
REMARK  3 active torsions:
REMARK  status: ('A' for Active; 'I' for Inactive)
REMARK    1  A    between atoms: O1_2  and  C2_3 
REMARK    2  A    between atoms: C5_6  and  N1_7 
REMARK    3  A    between atoms: N2_10  and  C8_11 
ROOT
HETATM    1  C1  UNL     1      10.538   1.071  31.054  1.00  0.00     0.210 C 
HETATM    2  O1  UNL     1       9.599   1.959  31.647  1.00  0.00    -0.356 OA
ENDROOT
BRANCH   2   3
HETATM    3  C2  UNL     1       8.951   1.515  32.764  1.00  0.00     0.068 A 
HETATM    4  C3  UNL     1       7.704   1.932  33.214  1.00  0.00     0.039 A 
HETATM    5  C4  UNL     1       7.156   1.387  34.387  1.00  0.00     0.032 A 
HETATM    6  C5  UNL     1       7.823   0.410  35.143  1.00  0.00     0.030 A 
HETATM    7  C17 UNL     1       9.082   0.014  34.668  1.00  0.00     0.032 A 
HETATM    8  C18 UNL     1       9.638   0.553  33.499  1.00  0.00     0.039 A 
BRANCH   6   9
HETATM    9  N1  UNL     1       7.286  -0.124  36.303  1.00  0.00    -0.378 N 
HETATM   10  C6  UNL     1       7.442   0.533  37.608  1.00  0.00     0.143 C 
HETATM   11  C7  UNL     1       7.265  -0.469  38.770  1.00  0.00     0.161 C 
HETATM   12  N2  UNL     1       5.982  -1.188  38.721  1.00  0.00    -0.213 N 
HETATM   13  C15 UNL     1       5.305  -1.185  37.410  1.00  0.00     0.161 C 
HETATM   14  C16 UNL     1       6.307  -1.225  36.237  1.00  0.00     0.143 C 
BRANCH  12  15
HETATM   15  C8  UNL     1       5.301  -1.626  39.837  1.00  0.00     0.705 A 
HETATM   16  N3  UNL     1       5.911  -1.829  40.966  1.00  0.00    -0.069 NA
HETATM   17  C9  UNL     1       5.195  -2.277  42.051  1.00  0.00     0.067 A 
HETATM   18  C10 UNL     1       3.869  -2.495  42.042  1.00  0.00     0.045 A 
HETATM   19  C14 UNL     1       6.041  -2.492  43.288  1.00  0.00     0.071 C 
HETATM   20  C11 UNL     1       3.166  -2.203  40.775  1.00  0.00     0.268 A 
HETATM   21  C12 UNL     1       3.001  -2.993  43.155  1.00  0.00     0.120 C 
HETATM   22  O2  UNL     1       1.947  -2.280  40.669  1.00  0.00    -0.267 OA
HETATM   23  N4  UNL     1       3.955  -1.828  39.731  1.00  0.00    -0.154 N 
HETATM   24  H10 UNL     1       3.468  -1.587  38.887  1.00  0.00     0.187 HD
HETATM   25  S1  UNL     1       3.922  -3.714  44.543  1.00  0.00    -0.164 SA
HETATM   26  C13 UNL     1       5.271  -2.507  44.604  1.00  0.00     0.080 C 
ENDBRANCH  12  15
ENDBRANCH   6   9
ENDBRANCH   2   3
TORSDOF 3
ENDMDL
MODEL 7
REMARK VINA RESULT:    -6.324     42.127     43.669
REMARK INTER + INTRA:          -7.871
REMARK INTER:                  -7.425
REMARK INTRA:                  -0.446
REMARK UNBOUND:                -0.438
REMARK  3 active torsions:
REMARK  status: ('A' for Active; 'I' for Inactive)
REMARK    1  A    between atoms: O1_2  and  C2_3 
REMARK    2  A    between atoms: C5_6  and  N1_7 
REMARK    3  A    between atoms: N2_10  and  C8_11 
ROOT
HETATM    1  C1  UNL     1       9.816  -9.890  43.030  1.00  0.00     0.210 C 
HETATM    2  O1  UNL     1       9.621  -8.680  43.752  1.00  0.00    -0.356 OA
ENDROOT
BRANCH   2   3
HETATM    3  C2  UNL     1       9.288  -7.575  43.024  1.00  0.00     0.068 A 
HETATM    4  C3  UNL     1       9.359  -6.254  43.452  1.00  0.00     0.039 A 
HETATM    5  C4  UNL     1       8.981  -5.210  42.591  1.00  0.00     0.032 A 
HETATM    6  C5  UNL     1       8.529  -5.443  41.283  1.00  0.00     0.030 A 
HETATM    7  C17 UNL     1       8.462  -6.786  40.882  1.00  0.00     0.032 A 
HETATM    8  C18 UNL     1       8.836  -7.834  41.734  1.00  0.00     0.039 A 
BRANCH   6   9
HETATM    9  N1  UNL     1       8.150  -4.415  40.435  1.00  0.00    -0.378 N 
HETATM   10  C6  UNL     1       8.339  -3.002  40.791  1.00  0.00     0.143 C 
HETATM   11  C7  UNL     1       7.383  -2.086  39.996  1.00  0.00     0.161 C 
HETATM   12  N2  UNL     1       7.501  -2.255  38.539  1.00  0.00    -0.213 N 
HETATM   13  C15 UNL     1       8.135  -3.513  38.098  1.00  0.00     0.161 C 
HETATM   14  C16 UNL     1       7.795  -4.694  39.031  1.00  0.00     0.143 C 
BRANCH  12  15
HETATM   15  C8  UNL     1       7.288  -1.244  37.627  1.00  0.00     0.705 A 
HETATM   16  N3  UNL     1       7.626  -1.376  36.379  1.00  0.00    -0.069 NA
HETATM   17  C9  UNL     1       7.405  -0.337  35.505  1.00  0.00     0.067 A 
HETATM   18  C10 UNL     1       6.820   0.825  35.846  1.00  0.00     0.045 A 
HETATM   19  C14 UNL     1       7.872  -0.623  34.094  1.00  0.00     0.071 C 
HETATM   20  C11 UNL     1       6.379   0.948  37.250  1.00  0.00     0.268 A 
HETATM   21  C12 UNL     1       6.548   2.016  34.983  1.00  0.00     0.120 C 
HETATM   22  O2  UNL     1       5.757   1.922  37.659  1.00  0.00    -0.267 OA
HETATM   23  N4  UNL     1       6.693  -0.096  38.066  1.00  0.00    -0.154 N 
HETATM   24  H10 UNL     1       6.351  -0.027  39.008  1.00  0.00     0.187 HD
HETATM   25  S1  UNL     1       7.441   2.002  33.402  1.00  0.00    -0.164 SA
HETATM   26  C13 UNL     1       7.237   0.245  33.014  1.00  0.00     0.080 C 
ENDBRANCH  12  15
ENDBRANCH   6   9
ENDBRANCH   2   3
TORSDOF 3
ENDMDL
MODEL 8
REMARK VINA RESULT:    -6.151     43.116     45.539
REMARK INTER + INTRA:          -7.667
REMARK INTER:                  -7.249
REMARK INTRA:                  -0.418
REMARK UNBOUND:                -0.438
REMARK  3 active torsions:
REMARK  status: ('A' for Active; 'I' for Inactive)
REMARK    1  A    between atoms: O1_2  and  C2_3 
REMARK    2  A    between atoms: C5_6  and  N1_7 
REMARK    3  A    between atoms: N2_10  and  C8_11 
ROOT
HETATM    1  C1  UNL     1       9.901   0.859  30.635  1.00  0.00     0.210 C 
HETATM    2  O1  UNL     1       8.699   0.125  30.828  1.00  0.00    -0.356 OA
ENDROOT
BRANCH   2   3
HETATM    3  C2  UNL     1       8.347  -0.154  32.118  1.00  0.00     0.068 A 
HETATM    4  C3  UNL     1       7.241  -0.886  32.531  1.00  0.00     0.039 A 
HETATM    5  C4  UNL     1       7.001  -1.095  33.900  1.00  0.00     0.032 A 
HETATM    6  C5  UNL     1       7.852  -0.592  34.896  1.00  0.00     0.030 A 
HETATM    7  C17 UNL     1       8.957   0.148  34.448  1.00  0.00     0.032 A 
HETATM    8  C18 UNL     1       9.203   0.363  33.086  1.00  0.00     0.039 A 
BRANCH   6   9
HETATM    9  N1  UNL     1       7.613  -0.792  36.246  1.00  0.00    -0.378 N 
HETATM   10  C6  UNL     1       7.171   0.295  37.129  1.00  0.00     0.143 C 
HETATM   11  C7  UNL     1       7.499  -0.008  38.608  1.00  0.00     0.161 C 
HETATM   12  N2  UNL     1       6.941  -1.288  39.071  1.00  0.00    -0.213 N 
HETATM   13  C15 UNL     1       6.573  -2.241  38.005  1.00  0.00     0.161 C 
HETATM   14  C16 UNL     1       7.528  -2.158  36.796  1.00  0.00     0.143 C 
BRANCH  12  15
HETATM   15  C8  UNL     1       6.537  -1.528  40.367  1.00  0.00     0.705 A 
HETATM   16  N3  UNL     1       5.479  -2.236  40.626  1.00  0.00    -0.069 NA
HETATM   17  C9  UNL     1       5.105  -2.440  41.934  1.00  0.00     0.067 A 
HETATM   18  C10 UNL     1       5.788  -1.977  42.995  1.00  0.00     0.045 A 
HETATM   19  C14 UNL     1       3.842  -3.261  42.081  1.00  0.00     0.071 C 
HETATM   20  C11 UNL     1       7.025  -1.226  42.700  1.00  0.00     0.268 A 
HETATM   21  C12 UNL     1       5.463  -2.128  44.448  1.00  0.00     0.120 C 
HETATM   22  O2  UNL     1       7.778  -0.828  43.582  1.00  0.00    -0.267 OA
HETATM   23  N4  UNL     1       7.290  -1.010  41.382  1.00  0.00    -0.154 N 
HETATM   24  H10 UNL     1       8.155  -0.539  41.186  1.00  0.00     0.187 HD
HETATM   25  S1  UNL     1       3.767  -2.691  44.770  1.00  0.00    -0.164 SA
HETATM   26  C13 UNL     1       3.654  -3.920  43.444  1.00  0.00     0.080 C 
ENDBRANCH  12  15
ENDBRANCH   6   9
ENDBRANCH   2   3
TORSDOF 3
ENDMDL
MODEL 9
REMARK VINA RESULT:    -6.103     22.634     25.309
REMARK INTER + INTRA:          -7.611
REMARK INTER:                  -7.188
REMARK INTRA:                  -0.423
REMARK UNBOUND:                -0.438
REMARK  3 active torsions:
REMARK  status: ('A' for Active; 'I' for Inactive)
REMARK    1  A    between atoms: O1_2  and  C2_3 
REMARK    2  A    between atoms: C5_6  and  N1_7 
REMARK    3  A    between atoms: N2_10  and  C8_11 
ROOT
HETATM    1  C1  UNL     1      23.672 -31.859  21.519  1.00  0.00     0.210 C 
HETATM    2  O1  UNL     1      24.959 -31.590  22.062  1.00  0.00    -0.356 OA
ENDROOT
BRANCH   2   3
HETATM    3  C2  UNL     1      25.146 -31.888  23.381  1.00  0.00     0.068 A 
HETATM    4  C3  UNL     1      26.367 -32.005  24.034  1.00  0.00     0.039 A 
HETATM    5  C4  UNL     1      26.411 -32.320  25.403  1.00  0.00     0.032 A 
HETATM    6  C5  UNL     1      25.249 -32.520  26.164  1.00  0.00     0.030 A 
HETATM    7  C17 UNL     1      24.032 -32.401  25.476  1.00  0.00     0.032 A 
HETATM    8  C18 UNL     1      23.978 -32.089  24.110  1.00  0.00     0.039 A 
BRANCH   6   9
HETATM    9  N1  UNL     1      25.291 -32.836  27.512  1.00  0.00    -0.378 N 
HETATM   10  C6  UNL     1      25.028 -31.835  28.555  1.00  0.00     0.143 C 
HETATM   11  C7  UNL     1      25.653 -32.250  29.906  1.00  0.00     0.161 C 
HETATM   12  N2  UNL     1      25.211 -33.577  30.362  1.00  0.00    -0.213 N 
HETATM   13  C15 UNL     1      24.641 -34.449  29.316  1.00  0.00     0.161 C 
HETATM   14  C16 UNL     1      25.330 -34.244  27.950  1.00  0.00     0.143 C 
BRANCH  12  15
HETATM   15  C8  UNL     1      25.080 -33.931  31.688  1.00  0.00     0.705 A 
HETATM   16  N3  UNL     1      24.650 -35.107  32.035  1.00  0.00    -0.069 NA
HETATM   17  C9  UNL     1      24.524 -35.414  33.370  1.00  0.00     0.067 A 
HETATM   18  C10 UNL     1      24.851 -34.578  34.371  1.00  0.00     0.045 A 
HETATM   19  C14 UNL     1      23.989 -36.807  33.623  1.00  0.00     0.071 C 
HETATM   20  C11 UNL     1      25.399 -33.265  33.974  1.00  0.00     0.268 A 
HETATM   21  C12 UNL     1      24.740 -34.806  35.846  1.00  0.00     0.120 C 
HETATM   22  O2  UNL     1      25.814 -32.452  34.793  1.00  0.00    -0.267 OA
HETATM   23  N4  UNL     1      25.430 -33.013  32.637  1.00  0.00    -0.154 N 
HETATM   24  H10 UNL     1      25.845 -32.138  32.371  1.00  0.00     0.187 HD
HETATM   25  S1  UNL     1      23.711 -36.232  36.297  1.00  0.00    -0.164 SA
HETATM   26  C13 UNL     1      24.282 -37.371  35.009  1.00  0.00     0.080 C 
ENDBRANCH  12  15
ENDBRANCH   6   9
ENDBRANCH   2   3
TORSDOF 3
ENDMDL
MODEL 10
REMARK VINA RESULT:    -6.100     23.286     23.572
REMARK INTER + INTRA:          -7.608
REMARK INTER:                  -7.189
REMARK INTRA:                  -0.419
REMARK UNBOUND:                -0.438
REMARK  3 active torsions:
REMARK  status: ('A' for Active; 'I' for Inactive)
REMARK    1  A    between atoms: O1_2  and  C2_3 
REMARK    2  A    between atoms: C5_6  and  N1_7 
REMARK    3  A    between atoms: N2_10  and  C8_11 
ROOT
HETATM    1  C1  UNL     1      23.602 -34.887  26.326  1.00  0.00     0.210 C 
HETATM    2  O1  UNL     1      23.364 -33.641  25.685  1.00  0.00    -0.356 OA
ENDROOT
BRANCH   2   3
HETATM    3  C2  UNL     1      24.456 -32.974  25.208  1.00  0.00     0.068 A 
HETATM    4  C3  UNL     1      24.494 -32.146  24.093  1.00  0.00     0.039 A 
HETATM    5  C4  UNL     1      25.695 -31.522  23.715  1.00  0.00     0.032 A 
HETATM    6  C5  UNL     1      26.888 -31.694  24.434  1.00  0.00     0.030 A 
HETATM    7  C17 UNL     1      26.820 -32.540  25.551  1.00  0.00     0.032 A 
HETATM    8  C18 UNL     1      25.627 -33.168  25.934  1.00  0.00     0.039 A 
BRANCH   6   9
HETATM    9  N1  UNL     1      28.074 -31.084  24.059  1.00  0.00    -0.378 N 
HETATM   10  C6  UNL     1      29.321 -31.273  24.813  1.00  0.00     0.143 C 
HETATM   11  C7  UNL     1      30.315 -30.118  24.562  1.00  0.00     0.161 C 
HETATM   12  N2  UNL     1      30.618 -29.918  23.136  1.00  0.00    -0.213 N 
HETATM   13  C15 UNL     1      29.643 -30.502  22.194  1.00  0.00     0.161 C 
HETATM   14  C16 UNL     1      28.200 -30.440  22.738  1.00  0.00     0.143 C 
BRANCH  12  15
HETATM   15  C8  UNL     1      31.827 -29.455  22.664  1.00  0.00     0.705 A 
HETATM   16  N3  UNL     1      32.894 -30.195  22.694  1.00  0.00    -0.069 NA
HETATM   17  C9  UNL     1      34.083 -29.688  22.223  1.00  0.00     0.067 A 
HETATM   18  C10 UNL     1      34.221 -28.463  21.687  1.00  0.00     0.045 A 
HETATM   19  C14 UNL     1      35.243 -30.653  22.345  1.00  0.00     0.071 C 
HETATM   20  C11 UNL     1      32.993 -27.647  21.595  1.00  0.00     0.268 A 
HETATM   21  C12 UNL     1      35.463 -27.814  21.162  1.00  0.00     0.120 C 
HETATM   22  O2  UNL     1      32.975 -26.549  21.049  1.00  0.00    -0.267 OA
HETATM   23  N4  UNL     1      31.874 -28.193  22.144  1.00  0.00    -0.154 N 
HETATM   24  H10 UNL     1      31.033 -27.654  22.037  1.00  0.00     0.187 HD
HETATM   25  S1  UNL     1      36.997 -28.656  21.643  1.00  0.00    -0.164 SA
HETATM   26  C13 UNL     1      36.426 -30.361  21.429  1.00  0.00     0.080 C 
ENDBRANCH  12  15
ENDBRANCH   6   9
ENDBRANCH   2   3
TORSDOF 3
ENDMDL
